/*---------------------------------------------------------------------------*\
| =========                 |                                                 |
| \\      /  F ield         | OpenFOAM: The Open Source CFD Toolbox           |
|  \\    /   O peration     | Version:  2512                                  |
|   \\  /    A nd           | Website:  www.openfoam.com                      |
|    \\/     M anipulation  |                                                 |
\*---------------------------------------------------------------------------*/
Build  : _bd2b6720-20260127 OPENFOAM=2512 version=2512
Arch   : "LSB;label=32;scalar=64"
Exec   : simpleFoam
Date   : Mar 27 2026
Time   : 16:31:25
Host   : mathias-laptop
PID    : 206340
I/O    : uncollated
Case   : /home/mat/OpenFOAM/mat-run/speed_sweep_runs/U_0p6
nProcs : 1
trapFpe: Floating point exception trapping enabled (FOAM_SIGFPE).
memory pool : not available
fileModificationChecking : Monitoring run-time modified files using timeStampMaster (fileModificationSkew 5, maxFileModificationPolls 20)
allowSystemOperations : Allowing user-supplied system call operations

// * * * * * * * * * * * * * * * * * * * * * * * * * * * * * * * * * * * * * //
Create time

Create mesh for time = 0


SIMPLE: convergence criteria
    field p	 tolerance 0.0001
    field U	 tolerance 1e-05
    field "(k|omega)"	 tolerance 1e-05

Reading field p

Reading field U

Reading/calculating face flux field phi

Selecting incompressible transport model Newtonian
Selecting turbulence model type RAS
Selecting RAS turbulence model kOmegaSST
Selecting patchDistMethod meshWave
RAS
{
    RASModel        kOmegaSST;
    turbulence      on;
    printCoeffs     on;
    alphaK1         0.85;
    alphaK2         1;
    alphaOmega1     0.5;
    alphaOmega2     0.856;
    gamma1          0.555556;
    gamma2          0.44;
    beta1           0.075;
    beta2           0.0828;
    betaStar        0.09;
    a1              0.31;
    b1              1;
    c1              10;
    F3              false;
    decayControl    false;
    kInf            0;
    omegaInf        0;
}

No MRF models present

No finite volume options present

Starting time loop

forces forcesFish:
    rho: rhoInf
    Freestream density (rhoInf) set to 1000
    Not including porosity effects

Time = 1

smoothSolver:  Solving for Ux, Initial residual = 0.999999, Final residual = 0.0282307, No Iterations 2
smoothSolver:  Solving for Uy, Initial residual = 1, Final residual = 0.038805, No Iterations 2
smoothSolver:  Solving for Uz, Initial residual = 1, Final residual = 0.0386951, No Iterations 2
GAMG:  Solving for p, Initial residual = 1, Final residual = 0.0557222, No Iterations 5
time step continuity errors : sum local = 1.24567e-05, global = -1.39845e-06, cumulative = -1.39845e-06
smoothSolver:  Solving for omega, Initial residual = 0.0131505, Final residual = 0.000548926, No Iterations 1
bounding omega, min: -14.6375 max: 10377.9 average: 85.2632
smoothSolver:  Solving for k, Initial residual = 1, Final residual = 0.0434312, No Iterations 1
ExecutionTime = 1.75 s  ClockTime = 2 s

forces forcesFish write:
    Sum of forces
        Total    : (1.03823 -0.0293898 -0.00243143)
        Pressure : (0.912696 -0.0293539 -0.00243531)
        Viscous  : (0.125531 -3.58433e-05 3.88237e-06)
    Sum of moments
        Total    : (-1.15108e-05 0.000804505 0.0160315)
        Pressure : (-1.15181e-05 0.000811462 0.0157931)
        Viscous  : (7.33345e-09 -6.95707e-06 0.000238372)
    writing force and moment files.

Time = 2

smoothSolver:  Solving for Ux, Initial residual = 0.0246303, Final residual = 0.00122056, No Iterations 2
smoothSolver:  Solving for Uy, Initial residual = 0.339083, Final residual = 0.0258502, No Iterations 2
smoothSolver:  Solving for Uz, Initial residual = 0.30532, Final residual = 0.0246669, No Iterations 2
GAMG:  Solving for p, Initial residual = 0.233262, Final residual = 0.0197745, No Iterations 3
time step continuity errors : sum local = 2.36704e-05, global = -1.33402e-06, cumulative = -2.73248e-06
smoothSolver:  Solving for omega, Initial residual = 0.00765199, Final residual = 0.000322701, No Iterations 1
smoothSolver:  Solving for k, Initial residual = 0.450619, Final residual = 0.0207324, No Iterations 1
ExecutionTime = 2.31 s  ClockTime = 3 s

forces forcesFish write:
    Sum of forces
        Total    : (1.32195 -0.0287033 -0.00215693)
        Pressure : (1.19993 -0.0287815 -0.00216974)
        Viscous  : (0.12202 7.82248e-05 1.28134e-05)
    Sum of moments
        Total    : (-9.46613e-06 0.000263009 0.0236467)
        Pressure : (-9.48219e-06 0.000279554 0.0234157)
        Viscous  : (1.60617e-08 -1.65455e-05 0.000231042)
    writing force and moment files.

Time = 3

smoothSolver:  Solving for Ux, Initial residual = 0.00630537, Final residual = 0.00032816, No Iterations 2
smoothSolver:  Solving for Uy, Initial residual = 0.152637, Final residual = 0.0114862, No Iterations 2
smoothSolver:  Solving for Uz, Initial residual = 0.201092, Final residual = 0.0159934, No Iterations 2
GAMG:  Solving for p, Initial residual = 0.135392, Final residual = 0.0132952, No Iterations 2
time step continuity errors : sum local = 4.09689e-05, global = -1.62383e-06, cumulative = -4.3563e-06
smoothSolver:  Solving for omega, Initial residual = 0.00516418, Final residual = 0.000230862, No Iterations 1
smoothSolver:  Solving for k, Initial residual = 0.266671, Final residual = 0.0128148, No Iterations 1
ExecutionTime = 2.84 s  ClockTime = 3 s

forces forcesFish write:
    Sum of forces
        Total    : (1.25027 -0.0231996 0.000318314)
        Pressure : (1.13094 -0.0233722 0.000293286)
        Viscous  : (0.119334 0.000172647 2.50278e-05)
    Sum of moments
        Total    : (-1.92853e-05 -0.000389021 0.023616)
        Pressure : (-1.92129e-05 -0.000363674 0.0233953)
        Viscous  : (-7.2402e-08 -2.5347e-05 0.000220783)
    writing force and moment files.

Time = 4

smoothSolver:  Solving for Ux, Initial residual = 0.00338446, Final residual = 0.00017427, No Iterations 2
smoothSolver:  Solving for Uy, Initial residual = 0.0827644, Final residual = 0.00613299, No Iterations 2
smoothSolver:  Solving for Uz, Initial residual = 0.131, Final residual = 0.0102326, No Iterations 2
GAMG:  Solving for p, Initial residual = 0.117868, Final residual = 0.00489766, No Iterations 3
time step continuity errors : sum local = 2.49807e-05, global = -1.30121e-06, cumulative = -5.65752e-06
smoothSolver:  Solving for omega, Initial residual = 0.00371619, Final residual = 0.000173868, No Iterations 1
smoothSolver:  Solving for k, Initial residual = 0.17807, Final residual = 0.00885022, No Iterations 1
ExecutionTime = 3.37 s  ClockTime = 4 s

forces forcesFish write:
    Sum of forces
        Total    : (0.97159 -0.0123589 0.00211675)
        Pressure : (0.854416 -0.0126033 0.00208187)
        Viscous  : (0.117174 0.000244364 3.48844e-05)
    Sum of moments
        Total    : (-2.28883e-05 -0.000822373 0.0197573)
        Pressure : (-2.27188e-05 -0.000791654 0.0195429)
        Viscous  : (-1.6947e-07 -3.07188e-05 0.000214398)
    writing force and moment files.

Time = 5

smoothSolver:  Solving for Ux, Initial residual = 0.00206597, Final residual = 0.000102462, No Iterations 2
smoothSolver:  Solving for Uy, Initial residual = 0.0447908, Final residual = 0.00323442, No Iterations 2
smoothSolver:  Solving for Uz, Initial residual = 0.0793494, Final residual = 0.00599471, No Iterations 2
GAMG:  Solving for p, Initial residual = 0.0778215, Final residual = 0.00378487, No Iterations 3
time step continuity errors : sum local = 3.04142e-05, global = -6.53493e-07, cumulative = -6.31101e-06
smoothSolver:  Solving for omega, Initial residual = 0.00278861, Final residual = 0.000135221, No Iterations 1
smoothSolver:  Solving for k, Initial residual = 0.128047, Final residual = 0.00653806, No Iterations 1
ExecutionTime = 3.9 s  ClockTime = 4 s

forces forcesFish write:
    Sum of forces
        Total    : (0.621835 0.000197775 0.00315267)
        Pressure : (0.506391 -9.52938e-05 0.00311269)
        Viscous  : (0.115444 0.000293069 3.99728e-05)
    Sum of moments
        Total    : (-2.18988e-05 -0.00102458 0.0143089)
        Pressure : (-2.1634e-05 -0.00099277 0.0140952)
        Viscous  : (-2.64775e-07 -3.181e-05 0.000213715)
    writing force and moment files.

Time = 6

smoothSolver:  Solving for Ux, Initial residual = 0.00144014, Final residual = 6.04257e-05, No Iterations 2
smoothSolver:  Solving for Uy, Initial residual = 0.0221565, Final residual = 0.00134213, No Iterations 2
smoothSolver:  Solving for Uz, Initial residual = 0.0434405, Final residual = 0.00271445, No Iterations 2
GAMG:  Solving for p, Initial residual = 0.0490491, Final residual = 0.00264551, No Iterations 3
time step continuity errors : sum local = 2.87736e-05, global = 2.59893e-07, cumulative = -6.05112e-06
smoothSolver:  Solving for omega, Initial residual = 0.00215808, Final residual = 0.000107592, No Iterations 1
smoothSolver:  Solving for k, Initial residual = 0.0970012, Final residual = 0.00506567, No Iterations 1
ExecutionTime = 4.45 s  ClockTime = 5 s

forces forcesFish write:
    Sum of forces
        Total    : (0.299516 0.0110727 0.00318635)
        Pressure : (0.185426 0.0107525 0.00314583)
        Viscous  : (0.11409 0.000320133 4.05219e-05)
    Sum of moments
        Total    : (-1.42121e-05 -0.0010419 0.00887115)
        Pressure : (-1.38624e-05 -0.00101227 0.00865245)
        Viscous  : (-3.49774e-07 -2.96266e-05 0.000218702)
    writing force and moment files.

Time = 7

smoothSolver:  Solving for Ux, Initial residual = 0.00118771, Final residual = 3.9691e-05, No Iterations 2
smoothSolver:  Solving for Uy, Initial residual = 0.015079, Final residual = 0.000507799, No Iterations 2
smoothSolver:  Solving for Uz, Initial residual = 0.0349934, Final residual = 0.00127783, No Iterations 2
GAMG:  Solving for p, Initial residual = 0.0325071, Final residual = 0.00168561, No Iterations 3
time step continuity errors : sum local = 2.20473e-05, global = 1.07433e-06, cumulative = -4.97679e-06
smoothSolver:  Solving for omega, Initial residual = 0.00171188, Final residual = 8.72116e-05, No Iterations 1
smoothSolver:  Solving for k, Initial residual = 0.0764529, Final residual = 0.00407216, No Iterations 1
ExecutionTime = 5 s  ClockTime = 5 s

forces forcesFish write:
    Sum of forces
        Total    : (0.064312 0.01814 0.0022516)
        Pressure : (-0.0487066 0.0178133 0.00221465)
        Viscous  : (0.113019 0.000326686 3.69506e-05)
    Sum of moments
        Total    : (-2.69527e-07 -0.000898982 0.00446233)
        Pressure : (1.36324e-07 -0.000873593 0.00423568)
        Viscous  : (-4.05851e-07 -2.53885e-05 0.000226652)
    writing force and moment files.

Time = 8

smoothSolver:  Solving for Ux, Initial residual = 0.00111415, Final residual = 3.68033e-05, No Iterations 2
smoothSolver:  Solving for Uy, Initial residual = 0.0182003, Final residual = 0.000941503, No Iterations 2
smoothSolver:  Solving for Uz, Initial residual = 0.0584066, Final residual = 0.00338788, No Iterations 2
GAMG:  Solving for p, Initial residual = 0.026889, Final residual = 0.00233217, No Iterations 2
time step continuity errors : sum local = 3.32832e-05, global = 1.78524e-06, cumulative = -3.19155e-06
smoothSolver:  Solving for omega, Initial residual = 0.00138588, Final residual = 7.18896e-05, No Iterations 1
smoothSolver:  Solving for k, Initial residual = 0.0620563, Final residual = 0.00336427, No Iterations 1
ExecutionTime = 5.52 s  ClockTime = 6 s

forces forcesFish write:
    Sum of forces
        Total    : (-0.053052 0.0211507 0.00100521)
        Pressure : (-0.165182 0.0208337 0.000976365)
        Viscous  : (0.11213 0.000317082 2.88401e-05)
    Sum of moments
        Total    : (1.532e-05 -0.000623005 0.00179372)
        Pressure : (1.57265e-05 -0.000603383 0.00155896)
        Viscous  : (-4.06467e-07 -1.96225e-05 0.000234754)
    writing force and moment files.

Time = 9

smoothSolver:  Solving for Ux, Initial residual = 0.00109062, Final residual = 3.68721e-05, No Iterations 2
smoothSolver:  Solving for Uy, Initial residual = 0.0198171, Final residual = 0.00114048, No Iterations 2
smoothSolver:  Solving for Uz, Initial residual = 0.0795172, Final residual = 0.00504835, No Iterations 2
GAMG:  Solving for p, Initial residual = 0.0294728, Final residual = 0.00204681, No Iterations 2
time step continuity errors : sum local = 2.93778e-05, global = 2.56948e-06, cumulative = -6.2207e-07
smoothSolver:  Solving for omega, Initial residual = 0.00114037, Final residual = 6.00177e-05, No Iterations 1
smoothSolver:  Solving for k, Initial residual = 0.0515757, Final residual = 0.00284021, No Iterations 1
ExecutionTime = 6.05 s  ClockTime = 6 s

forces forcesFish write:
    Sum of forces
        Total    : (-0.0796568 0.0212141 -0.000393423)
        Pressure : (-0.190967 0.0209135 -0.000415104)
        Viscous  : (0.111311 0.000300556 2.16803e-05)
    Sum of moments
        Total    : (3.06447e-05 -0.000404659 0.000745391)
        Pressure : (3.10172e-05 -0.000389711 0.000504117)
        Viscous  : (-3.72527e-07 -1.49477e-05 0.000241274)
    writing force and moment files.

Time = 10

smoothSolver:  Solving for Ux, Initial residual = 0.00103388, Final residual = 3.46039e-05, No Iterations 2
smoothSolver:  Solving for Uy, Initial residual = 0.0187842, Final residual = 0.00109292, No Iterations 2
smoothSolver:  Solving for Uz, Initial residual = 0.0757842, Final residual = 0.00484264, No Iterations 2
GAMG:  Solving for p, Initial residual = 0.034979, Final residual = 0.00261085, No Iterations 2
time step continuity errors : sum local = 3.58268e-05, global = 3.34176e-06, cumulative = 2.71969e-06
smoothSolver:  Solving for omega, Initial residual = 0.000950996, Final residual = 5.06875e-05, No Iterations 1
smoothSolver:  Solving for k, Initial residual = 0.0436458, Final residual = 0.00243707, No Iterations 1
ExecutionTime = 6.57 s  ClockTime = 7 s

forces forcesFish write:
    Sum of forces
        Total    : (-0.0444721 0.0191064 -0.00133214)
        Pressure : (-0.15493 0.018821 -0.0013474)
        Viscous  : (0.110458 0.000285351 1.52592e-05)
    Sum of moments
        Total    : (3.88914e-05 -0.000330806 0.000892306)
        Pressure : (3.91978e-05 -0.000319418 0.000646578)
        Viscous  : (-3.06468e-07 -1.13885e-05 0.000245728)
    writing force and moment files.

Time = 11

smoothSolver:  Solving for Ux, Initial residual = 0.00093256, Final residual = 2.99342e-05, No Iterations 2
smoothSolver:  Solving for Uy, Initial residual = 0.0158967, Final residual = 0.000875901, No Iterations 2
smoothSolver:  Solving for Uz, Initial residual = 0.060837, Final residual = 0.00368312, No Iterations 2
GAMG:  Solving for p, Initial residual = 0.0381471, Final residual = 0.00307037, No Iterations 2
time step continuity errors : sum local = 3.87618e-05, global = 3.72216e-06, cumulative = 6.44185e-06
smoothSolver:  Solving for omega, Initial residual = 0.000801892, Final residual = 4.32554e-05, No Iterations 1
smoothSolver:  Solving for k, Initial residual = 0.0374923, Final residual = 0.00211925, No Iterations 1
ExecutionTime = 7.1 s  ClockTime = 7 s

forces forcesFish write:
    Sum of forces
        Total    : (0.0243036 0.0152612 -0.00150122)
        Pressure : (-0.0852117 0.0149856 -0.00151157)
        Viscous  : (0.109515 0.00027565 1.03496e-05)
    Sum of moments
        Total    : (3.60096e-05 -0.000401686 0.00166136)
        Pressure : (3.6235e-05 -0.000392544 0.00141339)
        Viscous  : (-2.25345e-07 -9.14139e-06 0.00024797)
    writing force and moment files.

Time = 12

smoothSolver:  Solving for Ux, Initial residual = 0.000807743, Final residual = 2.37955e-05, No Iterations 2
smoothSolver:  Solving for Uy, Initial residual = 0.012354, Final residual = 0.00056997, No Iterations 2
smoothSolver:  Solving for Uz, Initial residual = 0.045653, Final residual = 0.00231315, No Iterations 2
GAMG:  Solving for p, Initial residual = 0.0395163, Final residual = 0.00330021, No Iterations 2
time step continuity errors : sum local = 3.7081e-05, global = 3.67911e-06, cumulative = 1.0121e-05
smoothSolver:  Solving for omega, Initial residual = 0.000682489, Final residual = 3.72104e-05, No Iterations 1
smoothSolver:  Solving for k, Initial residual = 0.0325724, Final residual = 0.00186106, No Iterations 1
ExecutionTime = 7.62 s  ClockTime = 8 s

forces forcesFish write:
    Sum of forces
        Total    : (0.100728 0.0105016 -0.000726853)
        Pressure : (-0.00774947 0.0102286 -0.00073498)
        Viscous  : (0.108477 0.000272991 8.12646e-06)
    Sum of moments
        Total    : (2.08894e-05 -0.000606797 0.00260038)
        Pressure : (2.10411e-05 -0.000598308 0.00235195)
        Viscous  : (-1.51706e-07 -8.48902e-06 0.000248425)
    writing force and moment files.

Time = 13

smoothSolver:  Solving for Ux, Initial residual = 0.000687304, Final residual = 1.82206e-05, No Iterations 2
smoothSolver:  Solving for Uy, Initial residual = 0.0100731, Final residual = 0.000340215, No Iterations 2
smoothSolver:  Solving for Uz, Initial residual = 0.0368679, Final residual = 0.00127649, No Iterations 2
GAMG:  Solving for p, Initial residual = 0.0390348, Final residual = 0.00320576, No Iterations 2
time step continuity errors : sum local = 3.15306e-05, global = 3.47139e-06, cumulative = 1.35923e-05
smoothSolver:  Solving for omega, Initial residual = 0.000585566, Final residual = 3.22184e-05, No Iterations 1
smoothSolver:  Solving for k, Initial residual = 0.0285795, Final residual = 0.0016482, No Iterations 1
ExecutionTime = 8.14 s  ClockTime = 8 s

forces forcesFish write:
    Sum of forces
        Total    : (0.165513 0.0057482 0.000802491)
        Pressure : (0.0581443 0.0054706 0.000793985)
        Viscous  : (0.107368 0.000277599 8.50611e-06)
    Sum of moments
        Total    : (-3.11796e-06 -0.000889055 0.00341584)
        Pressure : (-3.02484e-06 -0.000879849 0.00316779)
        Viscous  : (-9.3119e-08 -9.20666e-06 0.000248042)
    writing force and moment files.

Time = 14

smoothSolver:  Solving for Ux, Initial residual = 0.00060236, Final residual = 1.5305e-05, No Iterations 2
smoothSolver:  Solving for Uy, Initial residual = 0.0101438, Final residual = 0.00036987, No Iterations 2
smoothSolver:  Solving for Uz, Initial residual = 0.0415553, Final residual = 0.00160602, No Iterations 2
GAMG:  Solving for p, Initial residual = 0.0386855, Final residual = 0.00276607, No Iterations 2
time step continuity errors : sum local = 2.39643e-05, global = 2.87208e-06, cumulative = 1.64644e-05
smoothSolver:  Solving for omega, Initial residual = 0.000505716, Final residual = 2.80448e-05, No Iterations 1
smoothSolver:  Solving for k, Initial residual = 0.0252572, Final residual = 0.00146823, No Iterations 1
ExecutionTime = 8.64 s  ClockTime = 9 s

forces forcesFish write:
    Sum of forces
        Total    : (0.2082 0.00178325 0.00264585)
        Pressure : (0.101969 0.00149536 0.00263537)
        Viscous  : (0.106231 0.000287887 1.04715e-05)
    Sum of moments
        Total    : (-2.95253e-05 -0.00116943 0.00396974)
        Pressure : (-2.9474e-05 -0.00115871 0.00372215)
        Viscous  : (-5.12159e-08 -1.07196e-05 0.000247585)
    writing force and moment files.

Time = 15

smoothSolver:  Solving for Ux, Initial residual = 0.000554799, Final residual = 1.38869e-05, No Iterations 2
smoothSolver:  Solving for Uy, Initial residual = 0.0103161, Final residual = 0.000428931, No Iterations 2
smoothSolver:  Solving for Uz, Initial residual = 0.0431227, Final residual = 0.0019622, No Iterations 2
GAMG:  Solving for p, Initial residual = 0.0395694, Final residual = 0.00234216, No Iterations 2
time step continuity errors : sum local = 1.85273e-05, global = 2.29149e-06, cumulative = 1.87559e-05
smoothSolver:  Solving for omega, Initial residual = 0.000439062, Final residual = 2.451e-05, No Iterations 1
smoothSolver:  Solving for k, Initial residual = 0.0224745, Final residual = 0.00131534, No Iterations 1
ExecutionTime = 9.2 s  ClockTime = 10 s

forces forcesFish write:
    Sum of forces
        Total    : (0.226524 -0.000875437 0.0042532)
        Pressure : (0.121409 -0.00117678 0.00423992)
        Viscous  : (0.105114 0.000301343 1.32818e-05)
    Sum of moments
        Total    : (-5.1025e-05 -0.00137272 0.00424022)
        Pressure : (-5.09969e-05 -0.00136017 0.00399269)
        Viscous  : (-2.80625e-08 -1.25491e-05 0.000247529)
    writing force and moment files.

Time = 16

smoothSolver:  Solving for Ux, Initial residual = 0.000516132, Final residual = 1.2551e-05, No Iterations 2
smoothSolver:  Solving for Uy, Initial residual = 0.0097616, Final residual = 0.000410975, No Iterations 2
smoothSolver:  Solving for Uz, Initial residual = 0.0385579, Final residual = 0.00179677, No Iterations 2
GAMG:  Solving for p, Initial residual = 0.0419538, Final residual = 0.00250695, No Iterations 2
time step continuity errors : sum local = 1.91446e-05, global = 1.42519e-06, cumulative = 2.01811e-05
smoothSolver:  Solving for omega, Initial residual = 0.000382779, Final residual = 2.14855e-05, No Iterations 1
smoothSolver:  Solving for k, Initial residual = 0.0200946, Final residual = 0.0011829, No Iterations 1
ExecutionTime = 9.7 s  ClockTime = 10 s

forces forcesFish write:
    Sum of forces
        Total    : (0.225754 -0.0021915 0.00524907)
        Pressure : (0.121702 -0.00250757 0.00523265)
        Viscous  : (0.104052 0.000316076 1.64224e-05)
    Sum of moments
        Total    : (-6.30152e-05 -0.00145329 0.00428039)
        Pressure : (-6.29968e-05 -0.00143897 0.00403211)
        Viscous  : (-1.84504e-08 -1.43234e-05 0.000248275)
    writing force and moment files.

Time = 17

smoothSolver:  Solving for Ux, Initial residual = 0.000472769, Final residual = 1.11116e-05, No Iterations 2
smoothSolver:  Solving for Uy, Initial residual = 0.00849115, Final residual = 0.000337291, No Iterations 2
smoothSolver:  Solving for Uz, Initial residual = 0.0321755, Final residual = 0.00141986, No Iterations 2
GAMG:  Solving for p, Initial residual = 0.0421586, Final residual = 0.00247629, No Iterations 2
time step continuity errors : sum local = 1.91413e-05, global = 3.1666e-07, cumulative = 2.04978e-05
smoothSolver:  Solving for omega, Initial residual = 0.000334745, Final residual = 1.8852e-05, No Iterations 1
smoothSolver:  Solving for k, Initial residual = 0.0180593, Final residual = 0.00106851, No Iterations 1
ExecutionTime = 10.22 s  ClockTime = 11 s

forces forcesFish write:
    Sum of forces
        Total    : (0.213425 -0.00242816 0.00568856)
        Pressure : (0.110356 -0.0027579 0.0056694)
        Viscous  : (0.103069 0.000329744 1.91597e-05)
    Sum of moments
        Total    : (-6.46875e-05 -0.00142665 0.00418101)
        Pressure : (-6.46691e-05 -0.00141098 0.00393126)
        Viscous  : (-1.83702e-08 -1.56673e-05 0.000249744)
    writing force and moment files.

Time = 18

smoothSolver:  Solving for Ux, Initial residual = 0.000428349, Final residual = 9.69512e-06, No Iterations 2
smoothSolver:  Solving for Uy, Initial residual = 0.0069391, Final residual = 0.000237539, No Iterations 2
smoothSolver:  Solving for Uz, Initial residual = 0.0258087, Final residual = 0.000983868, No Iterations 2
GAMG:  Solving for p, Initial residual = 0.0388611, Final residual = 0.00226497, No Iterations 2
time step continuity errors : sum local = 1.83091e-05, global = -5.93956e-07, cumulative = 1.99038e-05
smoothSolver:  Solving for omega, Initial residual = 0.00029352, Final residual = 1.65632e-05, No Iterations 1
smoothSolver:  Solving for k, Initial residual = 0.0162853, Final residual = 0.000967867, No Iterations 1
ExecutionTime = 10.73 s  ClockTime = 11 s

forces forcesFish write:
    Sum of forces
        Total    : (0.19584 -0.00178574 0.00552123)
        Pressure : (0.0936644 -0.00212642 0.0055002)
        Viscous  : (0.102176 0.000340678 2.10256e-05)
    Sum of moments
        Total    : (-5.56124e-05 -0.0013043 0.00402376)
        Pressure : (-5.55894e-05 -0.00128787 0.00377224)
        Viscous  : (-2.3055e-08 -1.64213e-05 0.000251521)
    writing force and moment files.

Time = 19

smoothSolver:  Solving for Ux, Initial residual = 0.000385309, Final residual = 8.39413e-06, No Iterations 2
smoothSolver:  Solving for Uy, Initial residual = 0.0055178, Final residual = 0.000143391, No Iterations 2
smoothSolver:  Solving for Uz, Initial residual = 0.0211821, Final residual = 0.000597527, No Iterations 2
GAMG:  Solving for p, Initial residual = 0.0336194, Final residual = 0.00197211, No Iterations 2
time step continuity errors : sum local = 1.69172e-05, global = -1.31506e-06, cumulative = 1.85887e-05
smoothSolver:  Solving for omega, Initial residual = 0.00025799, Final residual = 1.45804e-05, No Iterations 1
smoothSolver:  Solving for k, Initial residual = 0.0147438, Final residual = 0.000879667, No Iterations 1
ExecutionTime = 11.27 s  ClockTime = 12 s

forces forcesFish write:
    Sum of forces
        Total    : (0.178569 -0.000598221 0.00479412)
        Pressure : (0.0772004 -0.000946117 0.00477199)
        Viscous  : (0.101368 0.000347896 2.21332e-05)
    Sum of moments
        Total    : (-3.81872e-05 -0.00110941 0.00386727)
        Pressure : (-3.81582e-05 -0.00109282 0.00361408)
        Viscous  : (-2.89519e-08 -1.65862e-05 0.000253192)
    writing force and moment files.

Time = 20

smoothSolver:  Solving for Ux, Initial residual = 0.000339917, Final residual = 7.2704e-06, No Iterations 2
smoothSolver:  Solving for Uy, Initial residual = 0.0047646, Final residual = 0.000110125, No Iterations 2
smoothSolver:  Solving for Uz, Initial residual = 0.0197023, Final residual = 0.000509282, No Iterations 2
GAMG:  Solving for p, Initial residual = 0.0280289, Final residual = 0.00166579, No Iterations 2
time step continuity errors : sum local = 1.51259e-05, global = -1.91193e-06, cumulative = 1.66768e-05
smoothSolver:  Solving for omega, Initial residual = 0.000227261, Final residual = 1.28628e-05, No Iterations 1
smoothSolver:  Solving for k, Initial residual = 0.01338, Final residual = 0.000800916, No Iterations 1
ExecutionTime = 11.8 s  ClockTime = 12 s

forces forcesFish write:
    Sum of forces
        Total    : (0.165296 0.00074596 0.00368703)
        Pressure : (0.0646611 0.000394058 0.00366411)
        Viscous  : (0.100635 0.000351902 2.29146e-05)
    Sum of moments
        Total    : (-1.6993e-05 -0.000877341 0.00374007)
        Pressure : (-1.6959e-05 -0.000860877 0.00348542)
        Viscous  : (-3.40015e-08 -1.64636e-05 0.000254648)
    writing force and moment files.

Time = 21

smoothSolver:  Solving for Ux, Initial residual = 0.000296318, Final residual = 6.40599e-06, No Iterations 2
smoothSolver:  Solving for Uy, Initial residual = 0.00444452, Final residual = 0.000117529, No Iterations 2
smoothSolver:  Solving for Uz, Initial residual = 0.0199568, Final residual = 0.000611929, No Iterations 2
GAMG:  Solving for p, Initial residual = 0.0241573, Final residual = 0.00141989, No Iterations 2
time step continuity errors : sum local = 1.34607e-05, global = -2.35819e-06, cumulative = 1.43186e-05
smoothSolver:  Solving for omega, Initial residual = 0.000200557, Final residual = 1.13675e-05, No Iterations 1
smoothSolver:  Solving for k, Initial residual = 0.0121781, Final residual = 0.000730913, No Iterations 1
ExecutionTime = 12.32 s  ClockTime = 13 s

forces forcesFish write:
    Sum of forces
        Total    : (0.157518 0.00189716 0.00246519)
        Pressure : (0.0575584 0.00154374 0.00244206)
        Viscous  : (0.0999599 0.000353419 2.31313e-05)
    Sum of moments
        Total    : (2.72646e-06 -0.000649984 0.00364492)
        Pressure : (2.76247e-06 -0.000633993 0.00338913)
        Viscous  : (-3.60122e-08 -1.59907e-05 0.000255789)
    writing force and moment files.

Time = 22

smoothSolver:  Solving for Ux, Initial residual = 0.00026099, Final residual = 5.76388e-06, No Iterations 2
smoothSolver:  Solving for Uy, Initial residual = 0.00416662, Final residual = 0.000121827, No Iterations 2
smoothSolver:  Solving for Uz, Initial residual = 0.0198622, Final residual = 0.00067784, No Iterations 2
GAMG:  Solving for p, Initial residual = 0.0220383, Final residual = 0.00130548, No Iterations 2
time step continuity errors : sum local = 1.26841e-05, global = -2.66081e-06, cumulative = 1.16578e-05
smoothSolver:  Solving for omega, Initial residual = 0.000177215, Final residual = 1.00623e-05, No Iterations 1
smoothSolver:  Solving for k, Initial residual = 0.0110999, Final residual = 0.000667564, No Iterations 1
ExecutionTime = 12.86 s  ClockTime = 13 s

forces forcesFish write:
    Sum of forces
        Total    : (0.154803 0.00263607 0.00137854)
        Pressure : (0.0554743 0.0022823 0.001355)
        Viscous  : (0.0993283 0.000353769 2.35422e-05)
    Sum of moments
        Total    : (1.70673e-05 -0.000461456 0.00357159)
        Pressure : (1.71048e-05 -0.00044585 0.00331493)
        Viscous  : (-3.75626e-08 -1.56061e-05 0.000256669)
    writing force and moment files.

Time = 23

smoothSolver:  Solving for Ux, Initial residual = 0.000236964, Final residual = 5.16429e-06, No Iterations 2
smoothSolver:  Solving for Uy, Initial residual = 0.00387113, Final residual = 0.000113307, No Iterations 2
smoothSolver:  Solving for Uz, Initial residual = 0.0189015, Final residual = 0.000645407, No Iterations 2
GAMG:  Solving for p, Initial residual = 0.0209165, Final residual = 0.0012081, No Iterations 2
time step continuity errors : sum local = 1.18245e-05, global = -2.73136e-06, cumulative = 8.92645e-06
smoothSolver:  Solving for omega, Initial residual = 0.000156725, Final residual = 8.92121e-06, No Iterations 1
smoothSolver:  Solving for k, Initial residual = 0.0101373, Final residual = 0.000610532, No Iterations 1
ExecutionTime = 13.39 s  ClockTime = 14 s

forces forcesFish write:
    Sum of forces
        Total    : (0.155621 0.00291964 0.000496058)
        Pressure : (0.0568923 0.00256551 0.000473225)
        Viscous  : (0.0987289 0.000354135 2.28335e-05)
    Sum of moments
        Total    : (2.50652e-05 -0.000316116 0.00350354)
        Pressure : (2.50955e-05 -0.000301218 0.00324618)
        Viscous  : (-3.03267e-08 -1.48985e-05 0.000257355)
    writing force and moment files.

Time = 24

smoothSolver:  Solving for Ux, Initial residual = 0.000220402, Final residual = 4.58562e-06, No Iterations 2
smoothSolver:  Solving for Uy, Initial residual = 0.00352511, Final residual = 9.392e-05, No Iterations 2
smoothSolver:  Solving for Uz, Initial residual = 0.017196, Final residual = 0.000531291, No Iterations 2
GAMG:  Solving for p, Initial residual = 0.0198743, Final residual = 0.00108142, No Iterations 2
time step continuity errors : sum local = 1.05249e-05, global = -2.58553e-06, cumulative = 6.34092e-06
smoothSolver:  Solving for omega, Initial residual = 0.000138643, Final residual = 7.91068e-06, No Iterations 1
smoothSolver:  Solving for k, Initial residual = 0.00926365, Final residual = 0.000558369, No Iterations 1
ExecutionTime = 13.91 s  ClockTime = 14 s

forces forcesFish write:
    Sum of forces
        Total    : (0.15838 0.00275131 -0.00014107)
        Pressure : (0.060228 0.00239571 -0.000163524)
        Viscous  : (0.0981516 0.000355593 2.24537e-05)
    Sum of moments
        Total    : (2.6316e-05 -0.000214934 0.00342172)
        Pressure : (2.63384e-05 -0.000200409 0.00316361)
        Viscous  : (-2.24875e-08 -1.4525e-05 0.000258105)
    writing force and moment files.

Time = 25

smoothSolver:  Solving for Ux, Initial residual = 0.00021236, Final residual = 4.0698e-06, No Iterations 2
smoothSolver:  Solving for Uy, Initial residual = 0.00319165, Final residual = 7.13335e-05, No Iterations 2
smoothSolver:  Solving for Uz, Initial residual = 0.0152051, Final residual = 0.000375204, No Iterations 2
GAMG:  Solving for p, Initial residual = 0.0189669, Final residual = 0.000977927, No Iterations 2
time step continuity errors : sum local = 9.3784e-06, global = -2.27557e-06, cumulative = 4.06534e-06
smoothSolver:  Solving for omega, Initial residual = 0.000122603, Final residual = 7.01058e-06, No Iterations 1
smoothSolver:  Solving for k, Initial residual = 0.00847469, Final residual = 0.000510944, No Iterations 1
ExecutionTime = 14.42 s  ClockTime = 15 s

forces forcesFish write:
    Sum of forces
        Total    : (0.161603 0.00219883 -0.000461015)
        Pressure : (0.0640103 0.00184041 -0.000482266)
        Viscous  : (0.0975927 0.000358411 2.12511e-05)
    Sum of moments
        Total    : (2.1253e-05 -0.000166766 0.00331752)
        Pressure : (2.12617e-05 -0.000152727 0.00305856)
        Viscous  : (-8.69049e-09 -1.40388e-05 0.000258961)
    writing force and moment files.

Time = 26

smoothSolver:  Solving for Ux, Initial residual = 0.000207819, Final residual = 2.00805e-05, No Iterations 1
smoothSolver:  Solving for Uy, Initial residual = 0.00289755, Final residual = 5.53455e-05, No Iterations 2
smoothSolver:  Solving for Uz, Initial residual = 0.0137081, Final residual = 0.000266869, No Iterations 2
GAMG:  Solving for p, Initial residual = 0.0180673, Final residual = 0.000894155, No Iterations 2
time step continuity errors : sum local = 8.40961e-06, global = -1.88584e-06, cumulative = 2.1795e-06
smoothSolver:  Solving for omega, Initial residual = 0.000108319, Final residual = 6.20736e-06, No Iterations 1
smoothSolver:  Solving for k, Initial residual = 0.00775228, Final residual = 0.000467278, No Iterations 1
ExecutionTime = 14.93 s  ClockTime = 15 s

forces forcesFish write:
    Sum of forces
        Total    : (0.164281 0.00142801 -0.000457926)
        Pressure : (0.0672053 0.00106516 -0.000478425)
        Viscous  : (0.097076 0.000362849 2.04994e-05)
    Sum of moments
        Total    : (1.18265e-05 -0.000170834 0.00320187)
        Pressure : (1.18228e-05 -0.000156934 0.00294172)
        Viscous  : (3.67919e-09 -1.39002e-05 0.000260153)
    writing force and moment files.

Time = 27

smoothSolver:  Solving for Ux, Initial residual = 0.000200968, Final residual = 1.87804e-05, No Iterations 1
smoothSolver:  Solving for Uy, Initial residual = 0.00261458, Final residual = 4.78878e-05, No Iterations 2
smoothSolver:  Solving for Uz, Initial residual = 0.0126486, Final residual = 0.000233293, No Iterations 2
GAMG:  Solving for p, Initial residual = 0.016754, Final residual = 0.000830678, No Iterations 2
time step continuity errors : sum local = 7.6655e-06, global = -1.40226e-06, cumulative = 7.77241e-07
smoothSolver:  Solving for omega, Initial residual = 9.55697e-05, Final residual = 5.491e-06, No Iterations 1
smoothSolver:  Solving for k, Initial residual = 0.0070933, Final residual = 0.000427246, No Iterations 1
ExecutionTime = 15.43 s  ClockTime = 16 s

forces forcesFish write:
    Sum of forces
        Total    : (0.165782 0.000594292 -0.000189377)
        Pressure : (0.0692037 0.000226004 -0.000208393)
        Viscous  : (0.0965783 0.000368288 1.90158e-05)
    Sum of moments
        Total    : (7.45213e-07 -0.000218156 0.00308427)
        Pressure : (7.25492e-07 -0.000204551 0.00282283)
        Viscous  : (1.9721e-08 -1.36055e-05 0.000261438)
    writing force and moment files.

Time = 28

smoothSolver:  Solving for Ux, Initial residual = 0.000189378, Final residual = 1.73694e-05, No Iterations 1
smoothSolver:  Solving for Uy, Initial residual = 0.00232325, Final residual = 4.39797e-05, No Iterations 2
smoothSolver:  Solving for Uz, Initial residual = 0.0116101, Final residual = 0.000227635, No Iterations 2
GAMG:  Solving for p, Initial residual = 0.0153683, Final residual = 0.00076691, No Iterations 2
time step continuity errors : sum local = 6.97158e-06, global = -9.36364e-07, cumulative = -1.59123e-07
smoothSolver:  Solving for omega, Initial residual = 8.41642e-05, Final residual = 4.85044e-06, No Iterations 1
smoothSolver:  Solving for k, Initial residual = 0.00648581, Final residual = 0.000390191, No Iterations 1
ExecutionTime = 15.95 s  ClockTime = 16 s

forces forcesFish write:
    Sum of forces
        Total    : (0.165989 -0.000164912 0.000236537)
        Pressure : (0.0698888 -0.000539418 0.000218553)
        Viscous  : (0.0960999 0.000374505 1.79833e-05)
    Sum of moments
        Total    : (-9.36021e-06 -0.000291442 0.00297623)
        Pressure : (-9.39205e-06 -0.000277882 0.00271344)
        Viscous  : (3.18398e-08 -1.35596e-05 0.000262787)
    writing force and moment files.

Time = 29

smoothSolver:  Solving for Ux, Initial residual = 0.000174024, Final residual = 1.58615e-05, No Iterations 1
smoothSolver:  Solving for Uy, Initial residual = 0.00205045, Final residual = 3.98062e-05, No Iterations 2
smoothSolver:  Solving for Uz, Initial residual = 0.0104615, Final residual = 0.000216573, No Iterations 2
GAMG:  Solving for p, Initial residual = 0.0143813, Final residual = 0.000713927, No Iterations 2
time step continuity errors : sum local = 6.43193e-06, global = -3.85554e-07, cumulative = -5.44677e-07
smoothSolver:  Solving for omega, Initial residual = 7.39432e-05, Final residual = 4.27757e-06, No Iterations 1
smoothSolver:  Solving for k, Initial residual = 0.00592646, Final residual = 0.000355964, No Iterations 1
ExecutionTime = 16.49 s  ClockTime = 17 s

forces forcesFish write:
    Sum of forces
        Total    : (0.165139 -0.000775407 0.000715968)
        Pressure : (0.0694959 -0.00115622 0.000699169)
        Viscous  : (0.0956431 0.000380814 1.67988e-05)
    Sum of moments
        Total    : (-1.68588e-05 -0.000374476 0.0028835)
        Pressure : (-1.69021e-05 -0.000361044 0.00261941)
        Viscous  : (4.32977e-08 -1.34312e-05 0.00026409)
    writing force and moment files.

Time = 30

smoothSolver:  Solving for Ux, Initial residual = 0.000158965, Final residual = 1.44382e-05, No Iterations 1
smoothSolver:  Solving for Uy, Initial residual = 0.00180263, Final residual = 3.38821e-05, No Iterations 2
smoothSolver:  Solving for Uz, Initial residual = 0.00938129, Final residual = 0.00018774, No Iterations 2
GAMG:  Solving for p, Initial residual = 0.0133714, Final residual = 0.000657982, No Iterations 2
time step continuity errors : sum local = 5.90857e-06, global = 1.36294e-07, cumulative = -4.08383e-07
smoothSolver:  Solving for omega, Initial residual = 6.47851e-05, Final residual = 3.76681e-06, No Iterations 1
smoothSolver:  Solving for k, Initial residual = 0.00540829, Final residual = 0.000324187, No Iterations 1
ExecutionTime = 17 s  ClockTime = 17 s

forces forcesFish write:
    Sum of forces
        Total    : (0.1636 -0.00121827 0.00117662)
        Pressure : (0.0683911 -0.001605 0.00116053)
        Viscous  : (0.0952088 0.000386728 1.60853e-05)
    Sum of moments
        Total    : (-2.10751e-05 -0.000455604 0.00280723)
        Pressure : (-2.1125e-05 -0.000442182 0.00254196)
        Viscous  : (4.99427e-08 -1.34215e-05 0.000265272)
    writing force and moment files.

Time = 31

smoothSolver:  Solving for Ux, Initial residual = 0.000147679, Final residual = 1.32382e-05, No Iterations 1
smoothSolver:  Solving for Uy, Initial residual = 0.00159525, Final residual = 0.000148774, No Iterations 1
smoothSolver:  Solving for Uz, Initial residual = 0.00836751, Final residual = 0.000802638, No Iterations 1
GAMG:  Solving for p, Initial residual = 0.0121154, Final residual = 0.000582348, No Iterations 2
time step continuity errors : sum local = 5.23436e-06, global = 5.05906e-07, cumulative = 9.75232e-08
smoothSolver:  Solving for omega, Initial residual = 5.65841e-05, Final residual = 3.31461e-06, No Iterations 1
smoothSolver:  Solving for k, Initial residual = 0.00492688, Final residual = 0.000294631, No Iterations 1
ExecutionTime = 17.5 s  ClockTime = 18 s

forces forcesFish write:
    Sum of forces
        Total    : (0.1618 -0.00152288 0.00155866)
        Pressure : (0.0670024 -0.00191378 0.00154312)
        Viscous  : (0.094798 0.000390901 1.55447e-05)
    Sum of moments
        Total    : (-2.22581e-05 -0.000523947 0.00274334)
        Pressure : (-2.23105e-05 -0.00051058 0.00247748)
        Viscous  : (5.24323e-08 -1.33671e-05 0.000265855)
    writing force and moment files.

Time = 32

smoothSolver:  Solving for Ux, Initial residual = 0.000140505, Final residual = 1.23858e-05, No Iterations 1
smoothSolver:  Solving for Uy, Initial residual = 0.00147152, Final residual = 0.000128828, No Iterations 1
smoothSolver:  Solving for Uz, Initial residual = 0.00776744, Final residual = 0.000680129, No Iterations 1
GAMG:  Solving for p, Initial residual = 0.0110775, Final residual = 0.000519896, No Iterations 2
time step continuity errors : sum local = 4.68745e-06, global = 8.04325e-07, cumulative = 9.01848e-07
smoothSolver:  Solving for omega, Initial residual = 4.92497e-05, Final residual = 2.91283e-06, No Iterations 1
smoothSolver:  Solving for k, Initial residual = 0.00447944, Final residual = 0.000267155, No Iterations 1
ExecutionTime = 18.01 s  ClockTime = 18 s

forces forcesFish write:
    Sum of forces
        Total    : (0.16002 -0.00169676 0.00181859)
        Pressure : (0.0656104 -0.0020911 0.00180336)
        Viscous  : (0.0944099 0.000394346 1.52324e-05)
    Sum of moments
        Total    : (-2.07591e-05 -0.000571071 0.00269467)
        Pressure : (-2.08109e-05 -0.00055775 0.00242839)
        Viscous  : (5.18852e-08 -1.33211e-05 0.000266277)
    writing force and moment files.

Time = 33

smoothSolver:  Solving for Ux, Initial residual = 0.000133191, Final residual = 1.16288e-05, No Iterations 1
smoothSolver:  Solving for Uy, Initial residual = 0.00139004, Final residual = 0.00011827, No Iterations 1
smoothSolver:  Solving for Uz, Initial residual = 0.00732539, Final residual = 0.000615888, No Iterations 1
GAMG:  Solving for p, Initial residual = 0.0102234, Final residual = 0.000466011, No Iterations 2
time step continuity errors : sum local = 4.21773e-06, global = 9.52406e-07, cumulative = 1.85425e-06
smoothSolver:  Solving for omega, Initial residual = 4.26992e-05, Final residual = 2.55582e-06, No Iterations 1
smoothSolver:  Solving for k, Initial residual = 0.00406039, Final residual = 0.000241461, No Iterations 1
ExecutionTime = 18.53 s  ClockTime = 19 s

forces forcesFish write:
    Sum of forces
        Total    : (0.158448 -0.00176829 0.00193769)
        Pressure : (0.0644055 -0.00216532 0.00192267)
        Viscous  : (0.0940427 0.000397033 1.5025e-05)
    Sum of moments
        Total    : (-1.73427e-05 -0.000592569 0.00266005)
        Pressure : (-1.73927e-05 -0.000579325 0.0023935)
        Viscous  : (5.00052e-08 -1.32443e-05 0.000266548)
    writing force and moment files.

Time = 34

smoothSolver:  Solving for Ux, Initial residual = 0.000123163, Final residual = 1.08113e-05, No Iterations 1
smoothSolver:  Solving for Uy, Initial residual = 0.0013155, Final residual = 0.000110467, No Iterations 1
smoothSolver:  Solving for Uz, Initial residual = 0.0069247, Final residual = 0.000582325, No Iterations 1
GAMG:  Solving for p, Initial residual = 0.00942077, Final residual = 0.000417301, No Iterations 2
time step continuity errors : sum local = 3.79032e-06, global = 9.39299e-07, cumulative = 2.79355e-06
smoothSolver:  Solving for omega, Initial residual = 3.68613e-05, Final residual = 2.23935e-06, No Iterations 1
smoothSolver:  Solving for k, Initial residual = 0.00366987, Final residual = 0.000217587, No Iterations 1
ExecutionTime = 19.03 s  ClockTime = 19 s

forces forcesFish write:
    Sum of forces
        Total    : (0.157174 -0.00177679 0.00192235)
        Pressure : (0.0634786 -0.00217589 0.00190742)
        Viscous  : (0.0936951 0.000399098 1.49354e-05)
    Sum of moments
        Total    : (-1.29576e-05 -0.000588516 0.00263553)
        Pressure : (-1.30055e-05 -0.000575355 0.00236882)
        Viscous  : (4.786e-08 -1.31611e-05 0.000266713)
    writing force and moment files.

Time = 35

smoothSolver:  Solving for Ux, Initial residual = 0.000109585, Final residual = 9.83451e-06, No Iterations 1
smoothSolver:  Solving for Uy, Initial residual = 0.00122196, Final residual = 0.000102716, No Iterations 1
smoothSolver:  Solving for Uz, Initial residual = 0.00650556, Final residual = 0.000548933, No Iterations 1
GAMG:  Solving for p, Initial residual = 0.00866433, Final residual = 0.000379999, No Iterations 2
time step continuity errors : sum local = 3.46031e-06, global = 8.12338e-07, cumulative = 3.60589e-06
smoothSolver:  Solving for omega, Initial residual = 3.16764e-05, Final residual = 1.95897e-06, No Iterations 1
smoothSolver:  Solving for k, Initial residual = 0.0033034, Final residual = 0.000195295, No Iterations 1
ExecutionTime = 19.55 s  ClockTime = 20 s

forces forcesFish write:
    Sum of forces
        Total    : (0.156206 -0.00176154 0.00179683)
        Pressure : (0.0628399 -0.0021622 0.00178193)
        Viscous  : (0.0933658 0.000400661 1.48938e-05)
    Sum of moments
        Total    : (-8.52902e-06 -0.000562611 0.00261607)
        Pressure : (-8.57504e-06 -0.000549546 0.00234928)
        Viscous  : (4.60225e-08 -1.30654e-05 0.000266798)
    writing force and moment files.

Time = 36

smoothSolver:  Solving for Ux, Initial residual = 9.49415e-05, Final residual = 8.74649e-06, No Iterations 1
smoothSolver:  Solving for Uy, Initial residual = 0.00111524, Final residual = 9.4848e-05, No Iterations 1
smoothSolver:  Solving for Uz, Initial residual = 0.00605212, Final residual = 0.000513039, No Iterations 1
GAMG:  Solving for p, Initial residual = 0.00801602, Final residual = 0.000346092, No Iterations 2
time step continuity errors : sum local = 3.15531e-06, global = 7.14709e-07, cumulative = 4.3206e-06
smoothSolver:  Solving for omega, Initial residual = 2.70915e-05, Final residual = 1.71182e-06, No Iterations 1
smoothSolver:  Solving for k, Initial residual = 0.00296098, Final residual = 0.000174608, No Iterations 1
ExecutionTime = 20.03 s  ClockTime = 20 s

forces forcesFish write:
    Sum of forces
        Total    : (0.155501 -0.00175577 0.00160258)
        Pressure : (0.0624486 -0.00215767 0.0015877)
        Viscous  : (0.0930528 0.000401905 1.488e-05)
    Sum of moments
        Total    : (-4.84999e-06 -0.00052245 0.00259679)
        Pressure : (-4.89492e-06 -0.000509485 0.00232995)
        Viscous  : (4.4926e-08 -1.2965e-05 0.00026684)
    writing force and moment files.

Time = 37

smoothSolver:  Solving for Ux, Initial residual = 8.47413e-05, Final residual = 7.90392e-06, No Iterations 1
smoothSolver:  Solving for Uy, Initial residual = 0.0010092, Final residual = 8.60522e-05, No Iterations 1
smoothSolver:  Solving for Uz, Initial residual = 0.00558299, Final residual = 0.000466208, No Iterations 1
GAMG:  Solving for p, Initial residual = 0.00746876, Final residual = 0.000321039, No Iterations 2
time step continuity errors : sum local = 2.92605e-06, global = 6.45406e-07, cumulative = 4.96601e-06
smoothSolver:  Solving for omega, Initial residual = 2.30595e-05, Final residual = 1.49504e-06, No Iterations 1
smoothSolver:  Solving for k, Initial residual = 0.00264171, Final residual = 0.000155487, No Iterations 1
ExecutionTime = 20.55 s  ClockTime = 21 s

forces forcesFish write:
    Sum of forces
        Total    : (0.154992 -0.00178302 0.00138954)
        Pressure : (0.0622375 -0.00218601 0.00137468)
        Viscous  : (0.0927549 0.000402988 1.48647e-05)
    Sum of moments
        Total    : (-2.39924e-06 -0.000477681 0.00257377)
        Pressure : (-2.44389e-06 -0.000464821 0.00230692)
        Viscous  : (4.4652e-08 -1.28605e-05 0.000266855)
    writing force and moment files.

Time = 38

smoothSolver:  Solving for Ux, Initial residual = 7.81566e-05, Final residual = 7.30794e-06, No Iterations 1
smoothSolver:  Solving for Uy, Initial residual = 0.000914166, Final residual = 7.73153e-05, No Iterations 1
smoothSolver:  Solving for Uz, Initial residual = 0.00512649, Final residual = 0.000408657, No Iterations 1
GAMG:  Solving for p, Initial residual = 0.00694991, Final residual = 0.000297186, No Iterations 2
time step continuity errors : sum local = 2.70444e-06, global = 5.26108e-07, cumulative = 5.49212e-06
smoothSolver:  Solving for omega, Initial residual = 1.95372e-05, Final residual = 1.3062e-06, No Iterations 1
smoothSolver:  Solving for k, Initial residual = 0.00234354, Final residual = 0.000137816, No Iterations 1
ExecutionTime = 21.1 s  ClockTime = 21 s

forces forcesFish write:
    Sum of forces
        Total    : (0.154604 -0.00185288 0.0011955)
        Pressure : (0.0621328 -0.00225689 0.00118068)
        Viscous  : (0.0924708 0.000404014 1.48262e-05)
    Sum of moments
        Total    : (-1.27598e-06 -0.000435806 0.00254501)
        Pressure : (-1.32125e-06 -0.000423046 0.00227815)
        Viscous  : (4.5274e-08 -1.27608e-05 0.000266866)
    writing force and moment files.

Time = 39

smoothSolver:  Solving for Ux, Initial residual = 7.47882e-05, Final residual = 6.91365e-06, No Iterations 1
smoothSolver:  Solving for Uy, Initial residual = 0.000835611, Final residual = 6.94969e-05, No Iterations 1
smoothSolver:  Solving for Uz, Initial residual = 0.00472489, Final residual = 0.000355658, No Iterations 1
GAMG:  Solving for p, Initial residual = 0.00644971, Final residual = 0.000276482, No Iterations 2
time step continuity errors : sum local = 2.51044e-06, global = 3.55393e-07, cumulative = 5.84751e-06
smoothSolver:  Solving for omega, Initial residual = 1.64827e-05, Final residual = 1.14234e-06, No Iterations 1
smoothSolver:  Solving for k, Initial residual = 0.00206762, Final residual = 0.000121654, No Iterations 1
ExecutionTime = 21.6 s  ClockTime = 22 s

forces forcesFish write:
    Sum of forces
        Total    : (0.154272 -0.00196276 0.00104284)
        Pressure : (0.062072 -0.0023678 0.00102808)
        Viscous  : (0.0921996 0.000405047 1.47609e-05)
    Sum of moments
        Total    : (-1.32631e-06 -0.000401569 0.00251039)
        Pressure : (-1.37294e-06 -0.000388896 0.0022435)
        Viscous  : (4.6632e-08 -1.26729e-05 0.000266886)
    writing force and moment files.

Time = 40

smoothSolver:  Solving for Ux, Initial residual = 7.2825e-05, Final residual = 6.62628e-06, No Iterations 1
smoothSolver:  Solving for Uy, Initial residual = 0.000771299, Final residual = 6.30765e-05, No Iterations 1
smoothSolver:  Solving for Uz, Initial residual = 0.00436331, Final residual = 0.000313292, No Iterations 1
GAMG:  Solving for p, Initial residual = 0.00599825, Final residual = 0.000261677, No Iterations 2
time step continuity errors : sum local = 2.37051e-06, global = 2.11174e-07, cumulative = 6.05868e-06
smoothSolver:  Solving for omega, Initial residual = 1.38535e-05, Final residual = 1.00081e-06, No Iterations 1
smoothSolver:  Solving for k, Initial residual = 0.0018134, Final residual = 0.00010695, No Iterations 1
ExecutionTime = 22.1 s  ClockTime = 22 s

forces forcesFish write:
    Sum of forces
        Total    : (0.153954 -0.00210201 0.000942865)
        Pressure : (0.0620129 -0.00250812 0.000928226)
        Viscous  : (0.0919407 0.000406107 1.46399e-05)
    Sum of moments
        Total    : (-2.25276e-06 -0.000377721 0.00247128)
        Pressure : (-2.30147e-06 -0.00036513 0.00220436)
        Viscous  : (4.871e-08 -1.25919e-05 0.000266921)
    writing force and moment files.

Time = 41

smoothSolver:  Solving for Ux, Initial residual = 7.01403e-05, Final residual = 6.32101e-06, No Iterations 1
smoothSolver:  Solving for Uy, Initial residual = 0.000726391, Final residual = 5.83011e-05, No Iterations 1
smoothSolver:  Solving for Uz, Initial residual = 0.00404832, Final residual = 0.000281685, No Iterations 1
GAMG:  Solving for p, Initial residual = 0.00558292, Final residual = 0.00024533, No Iterations 2
time step continuity errors : sum local = 2.21784e-06, global = 6.96245e-08, cumulative = 6.12831e-06
smoothSolver:  Solving for omega, Initial residual = 1.16094e-05, Final residual = 8.79016e-07, No Iterations 1
smoothSolver:  Solving for k, Initial residual = 0.00158007, Final residual = 9.36252e-05, No Iterations 1
ExecutionTime = 22.62 s  ClockTime = 23 s

forces forcesFish write:
    Sum of forces
        Total    : (0.153626 -0.00225702 0.000896245)
        Pressure : (0.061932 -0.00266417 0.000881776)
        Viscous  : (0.0916936 0.000407155 1.44692e-05)
    Sum of moments
        Total    : (-3.69635e-06 -0.000364897 0.0024297)
        Pressure : (-3.74759e-06 -0.000352381 0.00216273)
        Viscous  : (5.12457e-08 -1.25161e-05 0.000266966)
    writing force and moment files.

Time = 42

smoothSolver:  Solving for Ux, Initial residual = 6.63105e-05, Final residual = 5.97221e-06, No Iterations 1
smoothSolver:  Solving for Uy, Initial residual = 0.000692517, Final residual = 5.46378e-05, No Iterations 1
smoothSolver:  Solving for Uz, Initial residual = 0.00377701, Final residual = 0.000258625, No Iterations 1
GAMG:  Solving for p, Initial residual = 0.00519985, Final residual = 0.000231131, No Iterations 2
time step continuity errors : sum local = 2.08648e-06, global = -5.17086e-09, cumulative = 6.12314e-06
smoothSolver:  Solving for omega, Initial residual = 9.71031e-06, Final residual = 7.74842e-07, No Iterations 1
smoothSolver:  Solving for k, Initial residual = 0.00136827, Final residual = 8.16807e-05, No Iterations 1
ExecutionTime = 23.12 s  ClockTime = 23 s

forces forcesFish write:
    Sum of forces
        Total    : (0.153282 -0.00241372 0.000897416)
        Pressure : (0.0618243 -0.00282185 0.000883145)
        Viscous  : (0.091458 0.000408129 1.42713e-05)
    Sum of moments
        Total    : (-5.30769e-06 -0.000362394 0.00238799)
        Pressure : (-5.3616e-06 -0.00034995 0.00212099)
        Viscous  : (5.39077e-08 -1.24445e-05 0.000266994)
    writing force and moment files.

Time = 43

smoothSolver:  Solving for Ux, Initial residual = 6.10618e-05, Final residual = 5.54549e-06, No Iterations 1
smoothSolver:  Solving for Uy, Initial residual = 0.000655445, Final residual = 5.11243e-05, No Iterations 1
smoothSolver:  Solving for Uz, Initial residual = 0.00354173, Final residual = 0.000241479, No Iterations 1
GAMG:  Solving for p, Initial residual = 0.00483318, Final residual = 0.000209367, No Iterations 2
time step continuity errors : sum local = 1.88855e-06, global = -2.67989e-08, cumulative = 6.09634e-06
smoothSolver:  Solving for omega, Initial residual = 8.11664e-06, Final residual = 6.86105e-07, No Iterations 1
smoothSolver:  Solving for k, Initial residual = 0.00117754, Final residual = 7.10463e-05, No Iterations 1
ExecutionTime = 23.62 s  ClockTime = 24 s

forces forcesFish write:
    Sum of forces
        Total    : (0.152931 -0.00255952 0.000935484)
        Pressure : (0.0616973 -0.00296847 0.000921433)
        Viscous  : (0.0912339 0.000408958 1.40511e-05)
    Sum of moments
        Total    : (-6.78848e-06 -0.000368264 0.0023485)
        Pressure : (-6.84511e-06 -0.000355883 0.00208152)
        Viscous  : (5.66318e-08 -1.23808e-05 0.000266985)
    writing force and moment files.

Time = 44

smoothSolver:  Solving for Ux, Initial residual = 5.56303e-05, Final residual = 5.0784e-06, No Iterations 1
smoothSolver:  Solving for Uy, Initial residual = 0.000615374, Final residual = 4.75167e-05, No Iterations 1
smoothSolver:  Solving for Uz, Initial residual = 0.00333028, Final residual = 0.000226354, No Iterations 1
GAMG:  Solving for p, Initial residual = 0.00448761, Final residual = 0.000184401, No Iterations 2
time step continuity errors : sum local = 1.66313e-06, global = -5.27154e-08, cumulative = 6.04362e-06
smoothSolver:  Solving for omega, Initial residual = 6.78918e-06, Final residual = 6.10697e-07, No Iterations 1
smoothSolver:  Solving for k, Initial residual = 0.00100688, Final residual = 6.16192e-05, No Iterations 1
ExecutionTime = 24.13 s  ClockTime = 24 s

forces forcesFish write:
    Sum of forces
        Total    : (0.152585 -0.00268328 0.000994613)
        Pressure : (0.0615646 -0.00309285 0.000980791)
        Viscous  : (0.0910209 0.000409572 1.3822e-05)
    Sum of moments
        Total    : (-7.91499e-06 -0.000379307 0.00231365)
        Pressure : (-7.97421e-06 -0.000366982 0.00204673)
        Viscous  : (5.92167e-08 -1.23252e-05 0.000266928)
    writing force and moment files.

Time = 45

smoothSolver:  Solving for Ux, Initial residual = 5.08535e-05, Final residual = 4.65973e-06, No Iterations 1
smoothSolver:  Solving for Uy, Initial residual = 0.000571689, Final residual = 4.38227e-05, No Iterations 1
smoothSolver:  Solving for Uz, Initial residual = 0.00312125, Final residual = 0.000210715, No Iterations 1
GAMG:  Solving for p, Initial residual = 0.00416912, Final residual = 0.000165857, No Iterations 2
time step continuity errors : sum local = 1.49646e-06, global = -1.04389e-07, cumulative = 5.93923e-06
smoothSolver:  Solving for omega, Initial residual = 5.69297e-06, Final residual = 5.46692e-07, No Iterations 1
smoothSolver:  Solving for k, Initial residual = 0.000855852, Final residual = 5.33354e-05, No Iterations 1
ExecutionTime = 24.61 s  ClockTime = 25 s

forces forcesFish write:
    Sum of forces
        Total    : (0.152256 -0.00277889 0.0010571)
        Pressure : (0.0614369 -0.00318881 0.0010435)
        Viscous  : (0.0908188 0.000409921 1.35954e-05)
    Sum of moments
        Total    : (-8.583e-06 -0.000391697 0.00228489)
        Pressure : (-8.64469e-06 -0.000379423 0.00201809)
        Viscous  : (6.16961e-08 -1.22747e-05 0.000266802)
    writing force and moment files.

Time = 46

smoothSolver:  Solving for Ux, Initial residual = 4.74746e-05, Final residual = 4.34349e-06, No Iterations 1
smoothSolver:  Solving for Uy, Initial residual = 0.000528208, Final residual = 4.01864e-05, No Iterations 1
smoothSolver:  Solving for Uz, Initial residual = 0.00291642, Final residual = 0.000194254, No Iterations 1
GAMG:  Solving for p, Initial residual = 0.00387215, Final residual = 0.000153231, No Iterations 2
time step continuity errors : sum local = 1.38349e-06, global = -1.48791e-07, cumulative = 5.79044e-06
smoothSolver:  Solving for omega, Initial residual = 4.79374e-06, Final residual = 8.86895e-08, No Iterations 2
smoothSolver:  Solving for k, Initial residual = 0.00072334, Final residual = 4.60888e-05, No Iterations 1
ExecutionTime = 25.1 s  ClockTime = 25 s

forces forcesFish write:
    Sum of forces
        Total    : (0.151947 -0.00284766 0.00110992)
        Pressure : (0.0613194 -0.00325765 0.00109654)
        Viscous  : (0.0906273 0.000409987 1.33774e-05)
    Sum of moments
        Total    : (-8.81927e-06 -0.000402451 0.002262)
        Pressure : (-8.88303e-06 -0.000390223 0.0019954)
        Viscous  : (6.37566e-08 -1.22273e-05 0.000266606)
    writing force and moment files.

Time = 47

smoothSolver:  Solving for Ux, Initial residual = 4.58581e-05, Final residual = 4.13598e-06, No Iterations 1
smoothSolver:  Solving for Uy, Initial residual = 0.000484905, Final residual = 3.67774e-05, No Iterations 1
smoothSolver:  Solving for Uz, Initial residual = 0.00271475, Final residual = 0.000178371, No Iterations 1
GAMG:  Solving for p, Initial residual = 0.00360742, Final residual = 0.000142796, No Iterations 2
time step continuity errors : sum local = 1.29023e-06, global = -1.67661e-07, cumulative = 5.62278e-06
smoothSolver:  Solving for omega, Initial residual = 3.96853e-06, Final residual = 8.05677e-08, No Iterations 2
smoothSolver:  Solving for k, Initial residual = 0.000608351, Final residual = 3.98017e-05, No Iterations 1
ExecutionTime = 25.59 s  ClockTime = 26 s

forces forcesFish write:
    Sum of forces
        Total    : (0.15166 -0.0028961 0.00114711)
        Pressure : (0.0612144 -0.00330586 0.00113393)
        Viscous  : (0.090446 0.000409762 1.31744e-05)
    Sum of moments
        Total    : (-8.72967e-06 -0.000410046 0.00224356)
        Pressure : (-8.79507e-06 -0.000397863 0.00197721)
        Viscous  : (6.54057e-08 -1.2183e-05 0.000266342)
    writing force and moment files.

Time = 48

smoothSolver:  Solving for Ux, Initial residual = 4.43564e-05, Final residual = 3.95746e-06, No Iterations 1
smoothSolver:  Solving for Uy, Initial residual = 0.000445639, Final residual = 3.38088e-05, No Iterations 1
smoothSolver:  Solving for Uz, Initial residual = 0.00252692, Final residual = 0.0001642, No Iterations 1
GAMG:  Solving for p, Initial residual = 0.00337602, Final residual = 0.000131894, No Iterations 2
time step continuity errors : sum local = 1.19248e-06, global = -1.61166e-07, cumulative = 5.46161e-06
smoothSolver:  Solving for omega, Initial residual = 3.3151e-06, Final residual = 7.30495e-08, No Iterations 2
smoothSolver:  Solving for k, Initial residual = 0.000509329, Final residual = 3.43637e-05, No Iterations 1
ExecutionTime = 26.1 s  ClockTime = 26 s

forces forcesFish write:
    Sum of forces
        Total    : (0.151397 -0.00293207 0.00116768)
        Pressure : (0.0611228 -0.00334133 0.00115469)
        Viscous  : (0.0902746 0.000409255 1.29932e-05)
    Sum of moments
        Total    : (-8.43971e-06 -0.000414082 0.00222779)
        Pressure : (-8.50632e-06 -0.00040194 0.00196179)
        Viscous  : (6.66097e-08 -1.21424e-05 0.000266008)
    writing force and moment files.

Time = 49

smoothSolver:  Solving for Ux, Initial residual = 4.24877e-05, Final residual = 3.77007e-06, No Iterations 1
smoothSolver:  Solving for Uy, Initial residual = 0.000415595, Final residual = 3.15724e-05, No Iterations 1
smoothSolver:  Solving for Uz, Initial residual = 0.00236403, Final residual = 0.000152333, No Iterations 1
GAMG:  Solving for p, Initial residual = 0.00316623, Final residual = 0.000118811, No Iterations 2
time step continuity errors : sum local = 1.07459e-06, global = -1.64201e-07, cumulative = 5.29741e-06
smoothSolver:  Solving for omega, Initial residual = 2.79767e-06, Final residual = 6.67086e-08, No Iterations 2
smoothSolver:  Solving for k, Initial residual = 0.000424913, Final residual = 2.96867e-05, No Iterations 1
ExecutionTime = 26.59 s  ClockTime = 27 s

forces forcesFish write:
    Sum of forces
        Total    : (0.151157 -0.00296205 0.00117287)
        Pressure : (0.0610441 -0.00337053 0.00116002)
        Viscous  : (0.0901126 0.000408483 1.28466e-05)
    Sum of moments
        Total    : (-8.06305e-06 -0.000414701 0.0022133)
        Pressure : (-8.13054e-06 -0.000402591 0.0019477)
        Viscous  : (6.74899e-08 -1.21094e-05 0.000265604)
    writing force and moment files.

Time = 50

smoothSolver:  Solving for Ux, Initial residual = 3.99776e-05, Final residual = 3.55239e-06, No Iterations 1
smoothSolver:  Solving for Uy, Initial residual = 0.000388458, Final residual = 2.96468e-05, No Iterations 1
smoothSolver:  Solving for Uz, Initial residual = 0.00222576, Final residual = 0.000142592, No Iterations 1
GAMG:  Solving for p, Initial residual = 0.00296812, Final residual = 0.000105626, No Iterations 2
time step continuity errors : sum local = 9.55353e-07, global = -1.73839e-07, cumulative = 5.12358e-06
smoothSolver:  Solving for omega, Initial residual = 2.38825e-06, Final residual = 6.13873e-08, No Iterations 2
smoothSolver:  Solving for k, Initial residual = 0.000353579, Final residual = 2.56802e-05, No Iterations 1
ExecutionTime = 27.08 s  ClockTime = 27 s

forces forcesFish write:
    Sum of forces
        Total    : (0.150936 -0.00299072 0.00116522)
        Pressure : (0.0609763 -0.0033982 0.00115249)
        Viscous  : (0.0899597 0.000407484 1.27292e-05)
    Sum of moments
        Total    : (-7.69155e-06 -0.000412398 0.00219907)
        Pressure : (-7.7596e-06 -0.000400316 0.00193394)
        Viscous  : (6.80546e-08 -1.20824e-05 0.000265137)
    writing force and moment files.

Time = 51

smoothSolver:  Solving for Ux, Initial residual = 3.65499e-05, Final residual = 3.28457e-06, No Iterations 1
smoothSolver:  Solving for Uy, Initial residual = 0.000362896, Final residual = 2.79166e-05, No Iterations 1
smoothSolver:  Solving for Uz, Initial residual = 0.00209805, Final residual = 0.000134103, No Iterations 1
GAMG:  Solving for p, Initial residual = 0.00277386, Final residual = 9.4638e-05, No Iterations 2
time step continuity errors : sum local = 8.55605e-07, global = -1.64821e-07, cumulative = 4.95875e-06
smoothSolver:  Solving for omega, Initial residual = 2.06361e-06, Final residual = 5.69085e-08, No Iterations 2
smoothSolver:  Solving for k, Initial residual = 0.00029376, Final residual = 2.22561e-05, No Iterations 1
ExecutionTime = 27.59 s  ClockTime = 28 s

forces forcesFish write:
    Sum of forces
        Total    : (0.150731 -0.00301948 0.00114883)
        Pressure : (0.0609159 -0.00342578 0.00113618)
        Viscous  : (0.0898154 0.000406296 1.26504e-05)
    Sum of moments
        Total    : (-7.40242e-06 -0.000408069 0.00218506)
        Pressure : (-7.47081e-06 -0.000396003 0.00192044)
        Viscous  : (6.83921e-08 -1.2066e-05 0.000264619)
    writing force and moment files.

Time = 52

smoothSolver:  Solving for Ux, Initial residual = 3.30372e-05, Final residual = 2.9976e-06, No Iterations 1
smoothSolver:  Solving for Uy, Initial residual = 0.000338508, Final residual = 2.62115e-05, No Iterations 1
smoothSolver:  Solving for Uz, Initial residual = 0.00197219, Final residual = 0.000126001, No Iterations 1
GAMG:  Solving for p, Initial residual = 0.00258924, Final residual = 8.70454e-05, No Iterations 2
time step continuity errors : sum local = 7.8633e-07, global = -1.27532e-07, cumulative = 4.83122e-06
smoothSolver:  Solving for omega, Initial residual = 1.80614e-06, Final residual = 5.3069e-08, No Iterations 2
smoothSolver:  Solving for k, Initial residual = 0.00024395, Final residual = 1.93341e-05, No Iterations 1
ExecutionTime = 28.12 s  ClockTime = 28 s

forces forcesFish write:
    Sum of forces
        Total    : (0.150538 -0.00304747 0.00112998)
        Pressure : (0.0608591 -0.00345242 0.00111738)
        Viscous  : (0.0896793 0.000404956 1.26006e-05)
    Sum of moments
        Total    : (-7.24807e-06 -0.000403164 0.00217187)
        Pressure : (-7.31665e-06 -0.000391106 0.00190781)
        Viscous  : (6.85807e-08 -1.2058e-05 0.000264055)
    writing force and moment files.

Time = 53

smoothSolver:  Solving for Ux, Initial residual = 3.00347e-05, Final residual = 2.7548e-06, No Iterations 1
smoothSolver:  Solving for Uy, Initial residual = 0.000314787, Final residual = 2.44819e-05, No Iterations 1
smoothSolver:  Solving for Uz, Initial residual = 0.00183816, Final residual = 0.000117414, No Iterations 1
GAMG:  Solving for p, Initial residual = 0.00241567, Final residual = 8.30569e-05, No Iterations 2
time step continuity errors : sum local = 7.49674e-07, global = -9.10047e-08, cumulative = 4.74022e-06
smoothSolver:  Solving for omega, Initial residual = 1.60111e-06, Final residual = 4.97142e-08, No Iterations 2
smoothSolver:  Solving for k, Initial residual = 0.000202715, Final residual = 1.684e-05, No Iterations 1
ExecutionTime = 28.61 s  ClockTime = 29 s

forces forcesFish write:
    Sum of forces
        Total    : (0.150355 -0.00307412 0.00111406)
        Pressure : (0.0608038 -0.00347761 0.00110149)
        Viscous  : (0.0895511 0.000403492 1.25764e-05)
    Sum of moments
        Total    : (-7.23168e-06 -0.000398978 0.00215973)
        Pressure : (-7.30047e-06 -0.000386922 0.00189627)
        Viscous  : (6.87947e-08 -1.20564e-05 0.000263457)
    writing force and moment files.

Time = 54

smoothSolver:  Solving for Ux, Initial residual = 2.81363e-05, Final residual = 2.58707e-06, No Iterations 1
smoothSolver:  Solving for Uy, Initial residual = 0.000292497, Final residual = 2.28592e-05, No Iterations 1
smoothSolver:  Solving for Uz, Initial residual = 0.00169977, Final residual = 0.000108467, No Iterations 1
GAMG:  Solving for p, Initial residual = 0.00225526, Final residual = 8.46041e-05, No Iterations 2
time step continuity errors : sum local = 7.63188e-07, global = -6.21623e-08, cumulative = 4.67806e-06
smoothSolver:  Solving for omega, Initial residual = 1.43727e-06, Final residual = 4.6689e-08, No Iterations 2
smoothSolver:  Solving for k, Initial residual = 0.000168766, Final residual = 1.47107e-05, No Iterations 1
ExecutionTime = 29.1 s  ClockTime = 29 s

forces forcesFish write:
    Sum of forces
        Total    : (0.150179 -0.00309949 0.00110337)
        Pressure : (0.0607484 -0.00350145 0.00109083)
        Viscous  : (0.0894304 0.000401956 1.25452e-05)
    Sum of moments
        Total    : (-7.32078e-06 -0.000396115 0.00214844)
        Pressure : (-7.38999e-06 -0.000384065 0.0018856)
        Viscous  : (6.92087e-08 -1.20504e-05 0.00026284)
    writing force and moment files.

Time = 55

smoothSolver:  Solving for Ux, Initial residual = 2.72572e-05, Final residual = 2.47756e-06, No Iterations 1
smoothSolver:  Solving for Uy, Initial residual = 0.000271739, Final residual = 2.13645e-05, No Iterations 1
smoothSolver:  Solving for Uz, Initial residual = 0.00156739, Final residual = 9.99961e-05, No Iterations 1
GAMG:  Solving for p, Initial residual = 0.00211239, Final residual = 8.50739e-05, No Iterations 2
time step continuity errors : sum local = 7.67181e-07, global = -2.65478e-08, cumulative = 4.65151e-06
smoothSolver:  Solving for omega, Initial residual = 1.30478e-06, Final residual = 4.38827e-08, No Iterations 2
smoothSolver:  Solving for k, Initial residual = 0.000140936, Final residual = 1.28913e-05, No Iterations 1
ExecutionTime = 29.63 s  ClockTime = 30 s

forces forcesFish write:
    Sum of forces
        Total    : (0.150009 -0.00312373 0.0010983)
        Pressure : (0.0606918 -0.00352408 0.00108575)
        Viscous  : (0.089317 0.000400342 1.25482e-05)
    Sum of moments
        Total    : (-7.47534e-06 -0.000394712 0.00213768)
        Pressure : (-7.54482e-06 -0.000382654 0.00187548)
        Viscous  : (6.94756e-08 -1.20584e-05 0.000262198)
    writing force and moment files.

Time = 56

smoothSolver:  Solving for Ux, Initial residual = 2.64106e-05, Final residual = 2.37428e-06, No Iterations 1
smoothSolver:  Solving for Uy, Initial residual = 0.000254207, Final residual = 2.00828e-05, No Iterations 1
smoothSolver:  Solving for Uz, Initial residual = 0.00145272, Final residual = 9.26871e-05, No Iterations 1
GAMG:  Solving for p, Initial residual = 0.00198171, Final residual = 8.0946e-05, No Iterations 2
time step continuity errors : sum local = 7.29844e-07, global = 2.20647e-08, cumulative = 4.67357e-06
smoothSolver:  Solving for omega, Initial residual = 1.19534e-06, Final residual = 4.12645e-08, No Iterations 2
smoothSolver:  Solving for k, Initial residual = 0.000118185, Final residual = 1.13328e-05, No Iterations 1
ExecutionTime = 30.13 s  ClockTime = 30 s

forces forcesFish write:
    Sum of forces
        Total    : (0.149844 -0.0031467 0.00109845)
        Pressure : (0.0606334 -0.00354536 0.00108588)
        Viscous  : (0.0892104 0.000398665 1.25668e-05)
    Sum of moments
        Total    : (-7.6607e-06 -0.000394691 0.00212724)
        Pressure : (-7.73047e-06 -0.000382619 0.0018657)
        Viscous  : (6.97704e-08 -1.20729e-05 0.000261538)
    writing force and moment files.

Time = 57

smoothSolver:  Solving for Ux, Initial residual = 2.55638e-05, Final residual = 2.27278e-06, No Iterations 1
smoothSolver:  Solving for Uy, Initial residual = 0.000241027, Final residual = 1.90624e-05, No Iterations 1
smoothSolver:  Solving for Uz, Initial residual = 0.00135892, Final residual = 8.69543e-05, No Iterations 1
GAMG:  Solving for p, Initial residual = 0.00186454, Final residual = 7.35911e-05, No Iterations 2
time step continuity errors : sum local = 6.63499e-07, global = 7.70959e-08, cumulative = 4.75067e-06
smoothSolver:  Solving for omega, Initial residual = 1.10301e-06, Final residual = 3.87804e-08, No Iterations 2
smoothSolver:  Solving for k, Initial residual = 9.9616e-05, Final residual = 1.84166e-06, No Iterations 2
ExecutionTime = 30.64 s  ClockTime = 31 s

forces forcesFish write:
    Sum of forces
        Total    : (0.149669 -0.00316802 0.00110323)
        Pressure : (0.0605735 -0.00356486 0.0010906)
        Viscous  : (0.0890952 0.000396832 1.26291e-05)
    Sum of moments
        Total    : (-7.85043e-06 -0.000395906 0.00211701)
        Pressure : (-7.92033e-06 -0.000383797 0.00185624)
        Viscous  : (6.99075e-08 -1.21089e-05 0.000260763)
    writing force and moment files.

Time = 58

smoothSolver:  Solving for Ux, Initial residual = 2.46e-05, Final residual = 2.17213e-06, No Iterations 1
smoothSolver:  Solving for Uy, Initial residual = 0.000227424, Final residual = 1.80443e-05, No Iterations 1
smoothSolver:  Solving for Uz, Initial residual = 0.00128766, Final residual = 8.26891e-05, No Iterations 1
GAMG:  Solving for p, Initial residual = 0.00175212, Final residual = 6.1503e-05, No Iterations 2
time step continuity errors : sum local = 5.54554e-07, global = 1.15847e-07, cumulative = 4.86652e-06
smoothSolver:  Solving for omega, Initial residual = 1.05835e-06, Final residual = 3.74253e-08, No Iterations 2
smoothSolver:  Solving for k, Initial residual = 8.36735e-05, Final residual = 1.63289e-06, No Iterations 2
ExecutionTime = 31.16 s  ClockTime = 31 s

forces forcesFish write:
    Sum of forces
        Total    : (0.149499 -0.0031872 0.00111178)
        Pressure : (0.0605113 -0.00358213 0.00109907)
        Viscous  : (0.088988 0.000394932 1.27058e-05)
    Sum of moments
        Total    : (-8.02723e-06 -0.000398108 0.00210708)
        Pressure : (-8.09723e-06 -0.000385956 0.00184711)
        Viscous  : (7.00047e-08 -1.21512e-05 0.000259973)
    writing force and moment files.

Time = 59

smoothSolver:  Solving for Ux, Initial residual = 2.29054e-05, Final residual = 2.03234e-06, No Iterations 1
smoothSolver:  Solving for Uy, Initial residual = 0.000213747, Final residual = 1.70701e-05, No Iterations 1
smoothSolver:  Solving for Uz, Initial residual = 0.00122271, Final residual = 7.89127e-05, No Iterations 1
GAMG:  Solving for p, Initial residual = 0.00164296, Final residual = 5.45123e-05, No Iterations 2
time step continuity errors : sum local = 4.91663e-07, global = 1.14246e-07, cumulative = 4.98076e-06
smoothSolver:  Solving for omega, Initial residual = 1.00682e-06, Final residual = 3.5841e-08, No Iterations 2
smoothSolver:  Solving for k, Initial residual = 7.06964e-05, Final residual = 1.4353e-06, No Iterations 2
ExecutionTime = 31.66 s  ClockTime = 32 s

forces forcesFish write:
    Sum of forces
        Total    : (0.149337 -0.00320365 0.0011232)
        Pressure : (0.0604478 -0.00359663 0.00111041)
        Viscous  : (0.0888887 0.000392976 1.27921e-05)
    Sum of moments
        Total    : (-8.18001e-06 -0.000401055 0.0020976)
        Pressure : (-8.25009e-06 -0.000388857 0.00183843)
        Viscous  : (7.00821e-08 -1.21985e-05 0.000259172)
    writing force and moment files.

Time = 60

smoothSolver:  Solving for Ux, Initial residual = 2.03149e-05, Final residual = 1.83832e-06, No Iterations 1
smoothSolver:  Solving for Uy, Initial residual = 0.00020097, Final residual = 1.61793e-05, No Iterations 1
smoothSolver:  Solving for Uz, Initial residual = 0.00116163, Final residual = 7.55078e-05, No Iterations 1
GAMG:  Solving for p, Initial residual = 0.00153346, Final residual = 5.20299e-05, No Iterations 2
time step continuity errors : sum local = 4.6957e-07, global = 8.60503e-08, cumulative = 5.06681e-06
smoothSolver:  Solving for omega, Initial residual = 9.53115e-07, Final residual = 3.41236e-08, No Iterations 2
smoothSolver:  Solving for k, Initial residual = 6.00661e-05, Final residual = 1.25836e-06, No Iterations 2
ExecutionTime = 32.16 s  ClockTime = 32 s

forces forcesFish write:
    Sum of forces
        Total    : (0.149184 -0.00321574 0.00113512)
        Pressure : (0.0603867 -0.00360671 0.00112223)
        Viscous  : (0.088797 0.000390974 1.2889e-05)
    Sum of moments
        Total    : (-8.29472e-06 -0.000404179 0.00208934)
        Pressure : (-8.36485e-06 -0.000391929 0.00183098)
        Viscous  : (7.01274e-08 -1.22502e-05 0.000258363)
    writing force and moment files.

Time = 61

smoothSolver:  Solving for Ux, Initial residual = 1.79093e-05, Final residual = 1.66437e-06, No Iterations 1
smoothSolver:  Solving for Uy, Initial residual = 0.000188644, Final residual = 1.53459e-05, No Iterations 1
smoothSolver:  Solving for Uz, Initial residual = 0.00109404, Final residual = 7.18125e-05, No Iterations 1
GAMG:  Solving for p, Initial residual = 0.00143054, Final residual = 4.72659e-05, No Iterations 2
time step continuity errors : sum local = 4.26913e-07, global = 7.9466e-08, cumulative = 5.14628e-06
smoothSolver:  Solving for omega, Initial residual = 8.99296e-07, Final residual = 3.23254e-08, No Iterations 2
smoothSolver:  Solving for k, Initial residual = 5.13238e-05, Final residual = 1.10216e-06, No Iterations 2
ExecutionTime = 32.68 s  ClockTime = 33 s

forces forcesFish write:
    Sum of forces
        Total    : (0.149043 -0.00322305 0.00114527)
        Pressure : (0.0603304 -0.00361199 0.00113229)
        Viscous  : (0.0887125 0.000388938 1.29874e-05)
    Sum of moments
        Total    : (-8.36918e-06 -0.000406924 0.00208272)
        Pressure : (-8.43929e-06 -0.000394622 0.00182517)
        Viscous  : (7.01031e-08 -1.23026e-05 0.000257549)
    writing force and moment files.

Time = 62

smoothSolver:  Solving for Ux, Initial residual = 1.65976e-05, Final residual = 1.5579e-06, No Iterations 1
smoothSolver:  Solving for Uy, Initial residual = 0.000175614, Final residual = 1.44741e-05, No Iterations 1
smoothSolver:  Solving for Uz, Initial residual = 0.00101731, Final residual = 6.74978e-05, No Iterations 1
GAMG:  Solving for p, Initial residual = 0.00133776, Final residual = 4.50012e-05, No Iterations 2
time step continuity errors : sum local = 4.06703e-07, global = 7.88383e-08, cumulative = 5.22512e-06
smoothSolver:  Solving for omega, Initial residual = 8.46297e-07, Final residual = 3.04818e-08, No Iterations 2
smoothSolver:  Solving for k, Initial residual = 4.41026e-05, Final residual = 9.64773e-07, No Iterations 2
ExecutionTime = 33.19 s  ClockTime = 34 s

forces forcesFish write:
    Sum of forces
        Total    : (0.148914 -0.0032265 0.00115312)
        Pressure : (0.0602793 -0.00361338 0.00114003)
        Viscous  : (0.0886347 0.000386879 1.30844e-05)
    Sum of moments
        Total    : (-8.41365e-06 -0.000409122 0.00207752)
        Pressure : (-8.48381e-06 -0.000396768 0.00182079)
        Viscous  : (7.01645e-08 -1.23542e-05 0.000256735)
    writing force and moment files.

Time = 63

smoothSolver:  Solving for Ux, Initial residual = 1.60496e-05, Final residual = 1.49223e-06, No Iterations 1
smoothSolver:  Solving for Uy, Initial residual = 0.000162408, Final residual = 1.35992e-05, No Iterations 1
smoothSolver:  Solving for Uz, Initial residual = 0.000939795, Final residual = 6.28971e-05, No Iterations 1
GAMG:  Solving for p, Initial residual = 0.00125218, Final residual = 4.55297e-05, No Iterations 2
time step continuity errors : sum local = 4.11617e-07, global = 6.25757e-08, cumulative = 5.28769e-06
smoothSolver:  Solving for omega, Initial residual = 7.94485e-07, Final residual = 2.8622e-08, No Iterations 2
smoothSolver:  Solving for k, Initial residual = 3.80839e-05, Final residual = 8.43969e-07, No Iterations 2
ExecutionTime = 33.71 s  ClockTime = 34 s

forces forcesFish write:
    Sum of forces
        Total    : (0.148796 -0.00322716 0.00115921)
        Pressure : (0.0602327 -0.00361195 0.00114603)
        Viscous  : (0.0885634 0.000384795 1.31835e-05)
    Sum of moments
        Total    : (-8.44165e-06 -0.000410889 0.00207332)
        Pressure : (-8.51201e-06 -0.000398484 0.0018174)
        Viscous  : (7.03544e-08 -1.24058e-05 0.000255916)
    writing force and moment files.

Time = 64

smoothSolver:  Solving for Ux, Initial residual = 1.56241e-05, Final residual = 1.43564e-06, No Iterations 1
smoothSolver:  Solving for Uy, Initial residual = 0.00015083, Final residual = 1.28154e-05, No Iterations 1
smoothSolver:  Solving for Uz, Initial residual = 0.000868603, Final residual = 5.85995e-05, No Iterations 1
[...]
        Pressure : (-1.04624e-05 -0.00051246 0.00202282)
        Viscous  : (1.25557e-07 -1.28033e-05 0.000232637)
    writing force and moment files.

Time = 126

smoothSolver:  Solving for Ux, Initial residual = 6.82417e-07, Final residual = 4.5203e-08, No Iterations 1
smoothSolver:  Solving for Uy, Initial residual = 7.38787e-06, Final residual = 5.28225e-07, No Iterations 1
smoothSolver:  Solving for Uz, Initial residual = 3.48533e-05, Final residual = 2.3259e-06, No Iterations 1
GAMG:  Solving for p, Initial residual = 3.69817e-05, Final residual = 1.64421e-06, No Iterations 2
time step continuity errors : sum local = 1.48479e-08, global = 5.45389e-09, cumulative = 4.98621e-06
smoothSolver:  Solving for omega, Initial residual = 1.07005e-08, Final residual = 1.47648e-09, No Iterations 1
smoothSolver:  Solving for k, Initial residual = 4.14631e-08, Final residual = 2.69674e-09, No Iterations 1
ExecutionTime = 66.61 s  ClockTime = 67 s

forces forcesFish write:
    Sum of forces
        Total    : (0.147578 -0.00238351 0.00146045)
        Pressure : (0.0596667 -0.00271157 0.00144611)
        Viscous  : (0.0879115 0.000328067 1.43366e-05)
    Sum of moments
        Total    : (-1.03561e-05 -0.000526277 0.00225663)
        Pressure : (-1.04818e-05 -0.000513477 0.00202396)
        Viscous  : (1.25675e-07 -1.28001e-05 0.000232662)
    writing force and moment files.

Time = 127

smoothSolver:  Solving for Ux, Initial residual = 6.38324e-07, Final residual = 4.22654e-08, No Iterations 1
smoothSolver:  Solving for Uy, Initial residual = 6.76534e-06, Final residual = 4.86468e-07, No Iterations 1
smoothSolver:  Solving for Uz, Initial residual = 3.21623e-05, Final residual = 2.15185e-06, No Iterations 1
GAMG:  Solving for p, Initial residual = 3.46698e-05, Final residual = 1.65345e-06, No Iterations 2
time step continuity errors : sum local = 1.49315e-08, global = 6.46273e-09, cumulative = 4.99267e-06
smoothSolver:  Solving for omega, Initial residual = 8.07946e-09, Final residual = 8.07946e-09, No Iterations 0
smoothSolver:  Solving for k, Initial residual = 3.83812e-08, Final residual = 2.53754e-09, No Iterations 1
ExecutionTime = 67.1 s  ClockTime = 67 s

forces forcesFish write:
    Sum of forces
        Total    : (0.14758 -0.00238091 0.00146305)
        Pressure : (0.0596683 -0.00270906 0.00144872)
        Viscous  : (0.0879118 0.00032815 1.43333e-05)
    Sum of moments
        Total    : (-1.03741e-05 -0.000527213 0.00225771)
        Pressure : (-1.04999e-05 -0.000514415 0.00202503)
        Viscous  : (1.25769e-07 -1.27983e-05 0.000232687)
    writing force and moment files.

Time = 128

smoothSolver:  Solving for Ux, Initial residual = 5.79004e-07, Final residual = 3.86468e-08, No Iterations 1
smoothSolver:  Solving for Uy, Initial residual = 6.18537e-06, Final residual = 4.47851e-07, No Iterations 1
smoothSolver:  Solving for Uz, Initial residual = 2.96208e-05, Final residual = 1.98882e-06, No Iterations 1
GAMG:  Solving for p, Initial residual = 3.25503e-05, Final residual = 1.74951e-06, No Iterations 2
time step continuity errors : sum local = 1.57991e-08, global = 6.49561e-09, cumulative = 4.99917e-06
smoothSolver:  Solving for omega, Initial residual = 9.20313e-09, Final residual = 9.20313e-09, No Iterations 0
smoothSolver:  Solving for k, Initial residual = 3.54421e-08, Final residual = 2.39804e-09, No Iterations 1
ExecutionTime = 67.6 s  ClockTime = 68 s

forces forcesFish write:
    Sum of forces
        Total    : (0.147582 -0.00237849 0.00146546)
        Pressure : (0.0596699 -0.00270672 0.00145114)
        Viscous  : (0.0879121 0.000328228 1.43262e-05)
    Sum of moments
        Total    : (-1.03909e-05 -0.00052808 0.00225873)
        Pressure : (-1.05168e-05 -0.000515285 0.00202602)
        Viscous  : (1.25878e-07 -1.2795e-05 0.00023271)
    writing force and moment files.

Time = 129

smoothSolver:  Solving for Ux, Initial residual = 4.99846e-07, Final residual = 3.4077e-08, No Iterations 1
smoothSolver:  Solving for Uy, Initial residual = 5.64943e-06, Final residual = 4.1286e-07, No Iterations 1
smoothSolver:  Solving for Uz, Initial residual = 2.72095e-05, Final residual = 1.83871e-06, No Iterations 1
GAMG:  Solving for p, Initial residual = 3.05383e-05, Final residual = 1.77902e-06, No Iterations 2
time step continuity errors : sum local = 1.60659e-08, global = 5.77878e-09, cumulative = 5.00495e-06
smoothSolver:  Solving for omega, Initial residual = 1.02796e-08, Final residual = 1.44841e-09, No Iterations 1
smoothSolver:  Solving for k, Initial residual = 3.27062e-08, Final residual = 2.20861e-09, No Iterations 1
ExecutionTime = 68.11 s  ClockTime = 68 s

forces forcesFish write:
    Sum of forces
        Total    : (0.147584 -0.00237624 0.00146768)
        Pressure : (0.0596713 -0.00270455 0.00145336)
        Viscous  : (0.0879123 0.000328303 1.43244e-05)
    Sum of moments
        Total    : (-1.04065e-05 -0.000528876 0.00225968)
        Pressure : (-1.05325e-05 -0.000516083 0.00202695)
        Viscous  : (1.25954e-07 -1.27938e-05 0.000232733)
    writing force and moment files.

Time = 130

smoothSolver:  Solving for Ux, Initial residual = 4.0646e-07, Final residual = 2.87441e-08, No Iterations 1
smoothSolver:  Solving for Uy, Initial residual = 5.1553e-06, Final residual = 3.80597e-07, No Iterations 1
smoothSolver:  Solving for Uz, Initial residual = 2.4925e-05, Final residual = 1.69839e-06, No Iterations 1
GAMG:  Solving for p, Initial residual = 2.85611e-05, Final residual = 1.71757e-06, No Iterations 2
time step continuity errors : sum local = 1.55114e-08, global = 4.93376e-09, cumulative = 5.00988e-06
smoothSolver:  Solving for omega, Initial residual = 7.69668e-09, Final residual = 7.69668e-09, No Iterations 0
smoothSolver:  Solving for k, Initial residual = 3.01563e-08, Final residual = 2.06794e-09, No Iterations 1
ExecutionTime = 68.6 s  ClockTime = 69 s

forces forcesFish write:
    Sum of forces
        Total    : (0.147585 -0.00237414 0.0014697)
        Pressure : (0.0596726 -0.00270252 0.00145538)
        Viscous  : (0.0879126 0.000328372 1.43169e-05)
    Sum of moments
        Total    : (-1.04208e-05 -0.0005296 0.00226056)
        Pressure : (-1.05469e-05 -0.000516809 0.00202781)
        Viscous  : (1.26056e-07 -1.27902e-05 0.000232754)
    writing force and moment files.

Time = 131

smoothSolver:  Solving for Ux, Initial residual = 3.26903e-07, Final residual = 2.40582e-08, No Iterations 1
smoothSolver:  Solving for Uy, Initial residual = 4.69923e-06, Final residual = 3.50962e-07, No Iterations 1
smoothSolver:  Solving for Uz, Initial residual = 2.27662e-05, Final residual = 1.56588e-06, No Iterations 1
GAMG:  Solving for p, Initial residual = 2.6676e-05, Final residual = 1.60591e-06, No Iterations 2
time step continuity errors : sum local = 1.45033e-08, global = 4.34946e-09, cumulative = 5.01423e-06
smoothSolver:  Solving for omega, Initial residual = 8.64432e-09, Final residual = 8.64432e-09, No Iterations 0
smoothSolver:  Solving for k, Initial residual = 2.76653e-08, Final residual = 1.94146e-09, No Iterations 1
ExecutionTime = 69.09 s  ClockTime = 69 s

forces forcesFish write:
    Sum of forces
        Total    : (0.147587 -0.00237218 0.00147148)
        Pressure : (0.0596738 -0.00270062 0.00145716)
        Viscous  : (0.0879128 0.000328439 1.4317e-05)
    Sum of moments
        Total    : (-1.04338e-05 -0.000530242 0.00226139)
        Pressure : (-1.05599e-05 -0.000517452 0.00202862)
        Viscous  : (1.26114e-07 -1.27897e-05 0.000232775)
    writing force and moment files.

Time = 132

smoothSolver:  Solving for Ux, Initial residual = 2.97322e-07, Final residual = 2.20161e-08, No Iterations 1
smoothSolver:  Solving for Uy, Initial residual = 4.27187e-06, Final residual = 3.23127e-07, No Iterations 1
smoothSolver:  Solving for Uz, Initial residual = 2.07158e-05, Final residual = 1.44006e-06, No Iterations 1
GAMG:  Solving for p, Initial residual = 2.48729e-05, Final residual = 1.48488e-06, No Iterations 2
time step continuity errors : sum local = 1.34106e-08, global = 3.76968e-09, cumulative = 5.018e-06
smoothSolver:  Solving for omega, Initial residual = 9.5426e-09, Final residual = 9.5426e-09, No Iterations 0
smoothSolver:  Solving for k, Initial residual = 2.53977e-08, Final residual = 1.82084e-09, No Iterations 1
ExecutionTime = 69.58 s  ClockTime = 70 s

forces forcesFish write:
    Sum of forces
        Total    : (0.147588 -0.00237035 0.00147304)
        Pressure : (0.0596748 -0.00269885 0.00145873)
        Viscous  : (0.087913 0.000328499 1.43087e-05)
    Sum of moments
        Total    : (-1.04454e-05 -0.00053081 0.00226216)
        Pressure : (-1.05716e-05 -0.000518024 0.00202936)
        Viscous  : (1.26214e-07 -1.27859e-05 0.000232794)
    writing force and moment files.

Time = 133

smoothSolver:  Solving for Ux, Initial residual = 3.02062e-07, Final residual = 2.17938e-08, No Iterations 1
smoothSolver:  Solving for Uy, Initial residual = 3.87792e-06, Final residual = 2.9735e-07, No Iterations 1
smoothSolver:  Solving for Uz, Initial residual = 1.88009e-05, Final residual = 1.32211e-06, No Iterations 1
GAMG:  Solving for p, Initial residual = 2.3175e-05, Final residual = 1.3795e-06, No Iterations 2
time step continuity errors : sum local = 1.2459e-08, global = 2.84896e-09, cumulative = 5.02085e-06
smoothSolver:  Solving for omega, Initial residual = 1.03956e-08, Final residual = 1.46902e-09, No Iterations 1
smoothSolver:  Solving for k, Initial residual = 2.31191e-08, Final residual = 1.65157e-09, No Iterations 1
ExecutionTime = 70.08 s  ClockTime = 70 s

forces forcesFish write:
    Sum of forces
        Total    : (0.147589 -0.00236864 0.00147441)
        Pressure : (0.0596758 -0.0026972 0.0014601)
        Viscous  : (0.0879132 0.000328559 1.43114e-05)
    Sum of moments
        Total    : (-1.04559e-05 -0.000531313 0.00226287)
        Pressure : (-1.05821e-05 -0.000518526 0.00203006)
        Viscous  : (1.26253e-07 -1.27864e-05 0.000232813)
    writing force and moment files.

Time = 134

smoothSolver:  Solving for Ux, Initial residual = 3.11382e-07, Final residual = 2.1846e-08, No Iterations 1
smoothSolver:  Solving for Uy, Initial residual = 3.53603e-06, Final residual = 2.74441e-07, No Iterations 1
smoothSolver:  Solving for Uz, Initial residual = 1.70575e-05, Final residual = 1.21283e-06, No Iterations 1
GAMG:  Solving for p, Initial residual = 2.1585e-05, Final residual = 1.28969e-06, No Iterations 2
time step continuity errors : sum local = 1.1648e-08, global = 1.55278e-09, cumulative = 5.0224e-06
smoothSolver:  Solving for omega, Initial residual = 7.49476e-09, Final residual = 7.49476e-09, No Iterations 0
smoothSolver:  Solving for k, Initial residual = 2.12963e-08, Final residual = 1.5334e-09, No Iterations 1
ExecutionTime = 70.61 s  ClockTime = 71 s

forces forcesFish write:
    Sum of forces
        Total    : (0.14759 -0.00236706 0.00147564)
        Pressure : (0.0596766 -0.00269567 0.00146134)
        Viscous  : (0.0879134 0.000328612 1.43026e-05)
    Sum of moments
        Total    : (-1.04654e-05 -0.000531764 0.00226353)
        Pressure : (-1.05917e-05 -0.000518981 0.0020307)
        Viscous  : (1.26353e-07 -1.27824e-05 0.00023283)
    writing force and moment files.

Time = 135

smoothSolver:  Solving for Ux, Initial residual = 3.1493e-07, Final residual = 2.16419e-08, No Iterations 1
smoothSolver:  Solving for Uy, Initial residual = 3.25018e-06, Final residual = 2.54667e-07, No Iterations 1
smoothSolver:  Solving for Uz, Initial residual = 1.55304e-05, Final residual = 1.11566e-06, No Iterations 1
GAMG:  Solving for p, Initial residual = 2.01464e-05, Final residual = 1.20183e-06, No Iterations 2
time step continuity errors : sum local = 1.08546e-08, global = 5.48666e-11, cumulative = 5.02246e-06
smoothSolver:  Solving for omega, Initial residual = 8.23034e-09, Final residual = 8.23034e-09, No Iterations 0
smoothSolver:  Solving for k, Initial residual = 1.94859e-08, Final residual = 1.42626e-09, No Iterations 1
ExecutionTime = 71.09 s  ClockTime = 71 s

forces forcesFish write:
    Sum of forces
        Total    : (0.147591 -0.00236561 0.00147673)
        Pressure : (0.0596774 -0.00269427 0.00146242)
        Viscous  : (0.0879136 0.000328665 1.43101e-05)
    Sum of moments
        Total    : (-1.04739e-05 -0.000532166 0.00226413)
        Pressure : (-1.06003e-05 -0.000519382 0.00203128)
        Viscous  : (1.26364e-07 -1.27849e-05 0.000232847)
    writing force and moment files.

Time = 136

smoothSolver:  Solving for Ux, Initial residual = 3.11511e-07, Final residual = 2.11065e-08, No Iterations 1
smoothSolver:  Solving for Uy, Initial residual = 2.99748e-06, Final residual = 2.36727e-07, No Iterations 1
smoothSolver:  Solving for Uz, Initial residual = 1.42192e-05, Final residual = 1.02973e-06, No Iterations 1
GAMG:  Solving for p, Initial residual = 1.88097e-05, Final residual = 1.12079e-06, No Iterations 2
time step continuity errors : sum local = 1.01227e-08, global = -1.56227e-09, cumulative = 5.0209e-06
smoothSolver:  Solving for omega, Initial residual = 8.92364e-09, Final residual = 8.92364e-09, No Iterations 0
smoothSolver:  Solving for k, Initial residual = 1.7879e-08, Final residual = 1.32708e-09, No Iterations 1
ExecutionTime = 71.6 s  ClockTime = 72 s

forces forcesFish write:
    Sum of forces
        Total    : (0.147592 -0.00236429 0.00147773)
        Pressure : (0.0596782 -0.002693 0.00146343)
        Viscous  : (0.0879138 0.00032871 1.42996e-05)
    Sum of moments
        Total    : (-1.04818e-05 -0.000532533 0.00226468)
        Pressure : (-1.06082e-05 -0.000519753 0.00203182)
        Viscous  : (1.26471e-07 -1.27802e-05 0.000232862)
    writing force and moment files.

Time = 137

smoothSolver:  Solving for Ux, Initial residual = 3.04e-07, Final residual = 2.0409e-08, No Iterations 1
smoothSolver:  Solving for Uy, Initial residual = 2.76486e-06, Final residual = 2.20275e-07, No Iterations 1
smoothSolver:  Solving for Uz, Initial residual = 1.31126e-05, Final residual = 9.57656e-07, No Iterations 1
GAMG:  Solving for p, Initial residual = 1.76366e-05, Final residual = 1.0565e-06, No Iterations 2
time step continuity errors : sum local = 9.54206e-09, global = -2.84333e-09, cumulative = 5.01805e-06
smoothSolver:  Solving for omega, Initial residual = 9.5832e-09, Final residual = 9.5832e-09, No Iterations 0
smoothSolver:  Solving for k, Initial residual = 1.65087e-08, Final residual = 1.23568e-09, No Iterations 1
ExecutionTime = 72.1 s  ClockTime = 72 s

forces forcesFish write:
    Sum of forces
        Total    : (0.147593 -0.00236309 0.00147861)
        Pressure : (0.0596788 -0.00269184 0.0014643)
        Viscous  : (0.087914 0.000328757 1.43122e-05)
    Sum of moments
        Total    : (-1.04888e-05 -0.000532859 0.00226519)
        Pressure : (-1.06152e-05 -0.000520074 0.00203231)
        Viscous  : (1.2645e-07 -1.27848e-05 0.000232877)
    writing force and moment files.

Time = 138

smoothSolver:  Solving for Ux, Initial residual = 2.91202e-07, Final residual = 1.94602e-08, No Iterations 1
smoothSolver:  Solving for Uy, Initial residual = 2.55304e-06, Final residual = 2.04889e-07, No Iterations 1
smoothSolver:  Solving for Uz, Initial residual = 1.21695e-05, Final residual = 8.93325e-07, No Iterations 1
GAMG:  Solving for p, Initial residual = 1.65467e-05, Final residual = 9.97519e-07, No Iterations 2
time step continuity errors : sum local = 9.00937e-09, global = -3.71072e-09, cumulative = 5.01434e-06
smoothSolver:  Solving for omega, Initial residual = 1.01933e-08, Final residual = 1.45259e-09, No Iterations 1
smoothSolver:  Solving for k, Initial residual = 1.49331e-08, Final residual = 1.11269e-09, No Iterations 1
ExecutionTime = 72.6 s  ClockTime = 73 s

forces forcesFish write:
    Sum of forces
        Total    : (0.147594 -0.002362 0.00147942)
        Pressure : (0.0596795 -0.0026908 0.00146512)
        Viscous  : (0.0879141 0.000328796 1.42979e-05)
    Sum of moments
        Total    : (-1.04952e-05 -0.000533157 0.00226565)
        Pressure : (-1.06217e-05 -0.000520378 0.00203276)
        Viscous  : (1.26575e-07 -1.27786e-05 0.00023289)
    writing force and moment files.

Time = 139

smoothSolver:  Solving for Ux, Initial residual = 2.71726e-07, Final residual = 1.82209e-08, No Iterations 1
smoothSolver:  Solving for Uy, Initial residual = 2.35908e-06, Final residual = 1.90834e-07, No Iterations 1
smoothSolver:  Solving for Uz, Initial residual = 1.13383e-05, Final residual = 8.40277e-07, No Iterations 1
GAMG:  Solving for p, Initial residual = 1.55948e-05, Final residual = 9.76241e-07, No Iterations 2
time step continuity errors : sum local = 8.81718e-09, global = -4.00695e-09, cumulative = 5.01033e-06
smoothSolver:  Solving for omega, Initial residual = 7.13966e-09, Final residual = 7.13966e-09, No Iterations 0
smoothSolver:  Solving for k, Initial residual = 1.41225e-08, Final residual = 1.03941e-09, No Iterations 1
ExecutionTime = 73.09 s  ClockTime = 73 s

forces forcesFish write:
    Sum of forces
        Total    : (0.147594 -0.00236103 0.00148012)
        Pressure : (0.0596802 -0.00268987 0.0014658)
        Viscous  : (0.0879143 0.000328838 1.4317e-05)
    Sum of moments
        Total    : (-1.05008e-05 -0.000533417 0.00226607)
        Pressure : (-1.06273e-05 -0.000520631 0.00203316)
        Viscous  : (1.26514e-07 -1.27858e-05 0.000232904)
    writing force and moment files.

Time = 140

smoothSolver:  Solving for Ux, Initial residual = 2.43125e-07, Final residual = 1.6498e-08, No Iterations 1
smoothSolver:  Solving for Uy, Initial residual = 2.18638e-06, Final residual = 1.77795e-07, No Iterations 1
smoothSolver:  Solving for Uz, Initial residual = 1.05986e-05, Final residual = 7.90212e-07, No Iterations 1
GAMG:  Solving for p, Initial residual = 1.47339e-05, Final residual = 1.00427e-06, No Iterations 2
time step continuity errors : sum local = 9.07028e-09, global = -3.77812e-09, cumulative = 5.00656e-06
smoothSolver:  Solving for omega, Initial residual = 7.66153e-09, Final residual = 7.66153e-09, No Iterations 0
smoothSolver:  Solving for k, Initial residual = 1.33363e-08, Final residual = 9.79813e-10, No Iterations 1
ExecutionTime = 73.6 s  ClockTime = 74 s

forces forcesFish write:
    Sum of forces
        Total    : (0.147595 -0.00236016 0.00148077)
        Pressure : (0.0596809 -0.00268903 0.00146647)
        Viscous  : (0.0879144 0.000328869 1.42959e-05)
    Sum of moments
        Total    : (-1.05059e-05 -0.000533656 0.00226645)
        Pressure : (-1.06326e-05 -0.000520879 0.00203353)
        Viscous  : (1.26671e-07 -1.27769e-05 0.000232914)
    writing force and moment files.

Time = 141

smoothSolver:  Solving for Ux, Initial residual = 2.07527e-07, Final residual = 1.43733e-08, No Iterations 1
smoothSolver:  Solving for Uy, Initial residual = 2.03122e-06, Final residual = 1.65995e-07, No Iterations 1
smoothSolver:  Solving for Uz, Initial residual = 9.93114e-06, Final residual = 7.46228e-07, No Iterations 1
GAMG:  Solving for p, Initial residual = 1.39756e-05, Final residual = 1.00409e-06, No Iterations 2
time step continuity errors : sum local = 9.06861e-09, global = -3.27661e-09, cumulative = 5.00328e-06
smoothSolver:  Solving for omega, Initial residual = 8.18005e-09, Final residual = 8.18005e-09, No Iterations 0
smoothSolver:  Solving for k, Initial residual = 1.26533e-08, Final residual = 9.25179e-10, No Iterations 1
ExecutionTime = 74.11 s  ClockTime = 74 s


SIMPLE solution converged in 141 iterations

forces forcesFish write:
    Sum of forces
        Total    : (0.147596 -0.00235936 0.0014813)
        Pressure : (0.0596814 -0.00268827 0.00146698)
        Viscous  : (0.0879145 0.000328907 1.43241e-05)
    Sum of moments
        Total    : (-1.05102e-05 -0.000533854 0.00226679)
        Pressure : (-1.06368e-05 -0.000521066 0.00203386)
        Viscous  : (1.26557e-07 -1.27877e-05 0.000232928)
    writing force and moment files.

End

