/*---------------------------------------------------------------------------*\
| =========                 |                                                 |
| \\      /  F ield         | OpenFOAM: The Open Source CFD Toolbox           |
|  \\    /   O peration     | Version:  2512                                  |
|   \\  /    A nd           | Website:  www.openfoam.com                      |
|    \\/     M anipulation  |                                                 |
\*---------------------------------------------------------------------------*/
Build  : _bd2b6720-20260127 OPENFOAM=2512 version=2512
Arch   : "LSB;label=32;scalar=64"
Exec   : simpleFoam
Date   : Mar 29 2026
Time   : 12:06:06
Host   : mathias-laptop
PID    : 13306
I/O    : uncollated
Case   : /home/mat/OpenFOAM/mat-run/speed_sweep_runs/U_1p0
nProcs : 1
trapFpe: Floating point exception trapping enabled (FOAM_SIGFPE).
memory pool : not available
fileModificationChecking : Monitoring run-time modified files using timeStampMaster (fileModificationSkew 5, maxFileModificationPolls 20)
allowSystemOperations : Allowing user-supplied system call operations

// * * * * * * * * * * * * * * * * * * * * * * * * * * * * * * * * * * * * * //
Create time

Create mesh for time = 0


SIMPLE: convergence criteria
    field p	 tolerance 0.0001
    field U	 tolerance 1e-05
    field "(k|omega)"	 tolerance 1e-05

Reading field p

Reading field U

Reading/calculating face flux field phi

Selecting incompressible transport model Newtonian
Selecting turbulence model type RAS
Selecting RAS turbulence model kOmegaSST
Selecting patchDistMethod meshWave
RAS
{
    RASModel        kOmegaSST;
    turbulence      on;
    printCoeffs     on;
    alphaK1         0.85;
    alphaK2         1;
    alphaOmega1     0.5;
    alphaOmega2     0.856;
    gamma1          0.555556;
    gamma2          0.44;
    beta1           0.075;
    beta2           0.0828;
    betaStar        0.09;
    a1              0.31;
    b1              1;
    c1              10;
    F3              false;
    decayControl    false;
    kInf            0;
    omegaInf        0;
}

No MRF models present

No finite volume options present

Starting time loop

forces forcesFish:
    rho: rhoInf
    Freestream density (rhoInf) set to 1000
    Not including porosity effects

Time = 1

smoothSolver:  Solving for Ux, Initial residual = 1, Final residual = 0.0965933, No Iterations 1
smoothSolver:  Solving for Uy, Initial residual = 1, Final residual = 0.0867476, No Iterations 2
smoothSolver:  Solving for Uz, Initial residual = 1, Final residual = 0.087019, No Iterations 2
GAMG:  Solving for p, Initial residual = 1, Final residual = 0.053425, No Iterations 5
time step continuity errors : sum local = 0.000636373, global = 9.18475e-05, cumulative = 9.18475e-05
smoothSolver:  Solving for omega, Initial residual = 0.00838767, Final residual = 0.00045955, No Iterations 2
smoothSolver:  Solving for k, Initial residual = 1, Final residual = 0.0154959, No Iterations 2
ExecutionTime = 4.78 s  ClockTime = 4 s

forces forcesFish write:
    Sum of forces
        Total    : (1.34151 -0.000333452 -0.00146489)
        Pressure : (1.10526 -0.000331995 -0.00146226)
        Viscous  : (0.236252 -1.45691e-06 -2.63212e-06)
    Sum of moments
        Total    : (1.67948e-07 0.000297402 0.000124583)
        Pressure : (1.68911e-07 0.000296134 0.000125565)
        Viscous  : (-9.62734e-10 1.2681e-06 -9.8183e-07)
    writing force and moment files.

Time = 2

smoothSolver:  Solving for Ux, Initial residual = 0.173152, Final residual = 0.00941501, No Iterations 2
smoothSolver:  Solving for Uy, Initial residual = 0.428058, Final residual = 0.0392236, No Iterations 2
smoothSolver:  Solving for Uz, Initial residual = 0.427448, Final residual = 0.0391706, No Iterations 2
GAMG:  Solving for p, Initial residual = 0.182771, Final residual = 0.0104712, No Iterations 3
time step continuity errors : sum local = 0.00103346, global = -0.000177332, cumulative = -8.5484e-05
smoothSolver:  Solving for omega, Initial residual = 0.000855537, Final residual = 3.35945e-05, No Iterations 2
smoothSolver:  Solving for k, Initial residual = 0.166289, Final residual = 0.00198892, No Iterations 2
ExecutionTime = 6.02 s  ClockTime = 6 s

forces forcesFish write:
    Sum of forces
        Total    : (1.41289 -0.000553234 -0.00181913)
        Pressure : (1.19035 -0.000553878 -0.00181362)
        Viscous  : (0.222542 6.43422e-07 -5.50945e-06)
    Sum of moments
        Total    : (1.63213e-07 0.000437807 2.38661e-05)
        Pressure : (1.70624e-07 0.000435863 2.48596e-05)
        Viscous  : (-7.41085e-09 1.94379e-06 -9.93583e-07)
    writing force and moment files.

Time = 3

smoothSolver:  Solving for Ux, Initial residual = 0.0419713, Final residual = 0.00214699, No Iterations 2
smoothSolver:  Solving for Uy, Initial residual = 0.26787, Final residual = 0.0231438, No Iterations 2
smoothSolver:  Solving for Uz, Initial residual = 0.266162, Final residual = 0.0230349, No Iterations 2
GAMG:  Solving for p, Initial residual = 0.322406, Final residual = 0.0154974, No Iterations 3
time step continuity errors : sum local = 0.0016432, global = 6.86783e-05, cumulative = -1.68057e-05
smoothSolver:  Solving for omega, Initial residual = 0.000567553, Final residual = 2.86678e-05, No Iterations 2
smoothSolver:  Solving for k, Initial residual = 0.075828, Final residual = 0.000956982, No Iterations 2
ExecutionTime = 7.32 s  ClockTime = 7 s

forces forcesFish write:
    Sum of forces
        Total    : (1.19481 -0.0003977 -0.000406852)
        Pressure : (0.98305 -0.00039965 -0.000401598)
        Viscous  : (0.211756 1.94976e-06 -5.25403e-06)
    Sum of moments
        Total    : (1.33179e-07 0.00023674 8.18711e-05)
        Pressure : (1.42272e-07 0.000234678 8.31706e-05)
        Viscous  : (-9.09356e-09 2.06269e-06 -1.29948e-06)
    writing force and moment files.

Time = 4

smoothSolver:  Solving for Ux, Initial residual = 0.022976, Final residual = 0.00109323, No Iterations 2
smoothSolver:  Solving for Uy, Initial residual = 0.167042, Final residual = 0.0137246, No Iterations 2
smoothSolver:  Solving for Uz, Initial residual = 0.166634, Final residual = 0.013711, No Iterations 2
GAMG:  Solving for p, Initial residual = 0.435162, Final residual = 0.0292908, No Iterations 3
time step continuity errors : sum local = 0.00288781, global = 0.000339869, cumulative = 0.000323064
smoothSolver:  Solving for omega, Initial residual = 0.000525511, Final residual = 2.85688e-05, No Iterations 2
smoothSolver:  Solving for k, Initial residual = 0.0473425, Final residual = 0.000597778, No Iterations 2
ExecutionTime = 8.6 s  ClockTime = 8 s

forces forcesFish write:
    Sum of forces
        Total    : (0.840738 1.70774e-06 0.0017317)
        Pressure : (0.637631 2.54753e-07 0.00173531)
        Viscous  : (0.203108 1.45299e-06 -3.61342e-06)
    Sum of moments
        Total    : (8.24394e-08 -0.000146352 0.000180337)
        Pressure : (8.4996e-08 -0.000147982 0.000181844)
        Viscous  : (-2.55664e-09 1.62945e-06 -1.50742e-06)
    writing force and moment files.

Time = 5

smoothSolver:  Solving for Ux, Initial residual = 0.0144746, Final residual = 0.000589639, No Iterations 2
smoothSolver:  Solving for Uy, Initial residual = 0.0929685, Final residual = 0.00710834, No Iterations 2
smoothSolver:  Solving for Uz, Initial residual = 0.0941836, Final residual = 0.00717405, No Iterations 2
GAMG:  Solving for p, Initial residual = 0.47692, Final residual = 0.0389524, No Iterations 3
time step continuity errors : sum local = 0.00333981, global = 0.000552068, cumulative = 0.000875132
smoothSolver:  Solving for omega, Initial residual = 0.000458193, Final residual = 2.4838e-05, No Iterations 2
smoothSolver:  Solving for k, Initial residual = 0.0340112, Final residual = 0.000418801, No Iterations 2
ExecutionTime = 9.92 s  ClockTime = 10 s

forces forcesFish write:
    Sum of forces
        Total    : (0.472483 0.000472933 0.0034044)
        Pressure : (0.276328 0.000473934 0.00340568)
        Viscous  : (0.196156 -1.0006e-06 -1.27877e-06)
    Sum of moments
        Total    : (2.00673e-08 -0.000507961 0.000243401)
        Pressure : (1.20325e-08 -0.000508695 0.000245171)
        Viscous  : (8.03476e-09 7.34189e-07 -1.76929e-06)
    writing force and moment files.

Time = 6

smoothSolver:  Solving for Ux, Initial residual = 0.00924155, Final residual = 0.000291373, No Iterations 2
smoothSolver:  Solving for Uy, Initial residual = 0.054087, Final residual = 0.00219351, No Iterations 2
smoothSolver:  Solving for Uz, Initial residual = 0.0543487, Final residual = 0.00224016, No Iterations 2
GAMG:  Solving for p, Initial residual = 0.226219, Final residual = 0.0202582, No Iterations 3
time step continuity errors : sum local = 0.00290611, global = 0.000553018, cumulative = 0.00142815
smoothSolver:  Solving for omega, Initial residual = 0.000377609, Final residual = 1.9741e-05, No Iterations 2
smoothSolver:  Solving for k, Initial residual = 0.0266998, Final residual = 0.000328349, No Iterations 2
ExecutionTime = 11.23 s  ClockTime = 11 s

forces forcesFish write:
    Sum of forces
        Total    : (0.17464 0.000872706 0.00379249)
        Pressure : (-0.0159174 0.000876796 0.00379183)
        Viscous  : (0.190558 -4.08988e-06 6.58417e-07)
    Sum of moments
        Total    : (-3.73156e-08 -0.000713218 0.000242297)
        Pressure : (-5.49401e-08 -0.000712965 0.000244165)
        Viscous  : (1.76245e-08 -2.53088e-07 -1.86798e-06)
    writing force and moment files.

Time = 7

smoothSolver:  Solving for Ux, Initial residual = 0.00584885, Final residual = 0.000204681, No Iterations 2
smoothSolver:  Solving for Uy, Initial residual = 0.0712168, Final residual = 0.00410339, No Iterations 2
smoothSolver:  Solving for Uz, Initial residual = 0.0689004, Final residual = 0.00395984, No Iterations 2
GAMG:  Solving for p, Initial residual = 0.121547, Final residual = 0.00974515, No Iterations 3
time step continuity errors : sum local = 0.00200298, global = 0.000216666, cumulative = 0.00164482
smoothSolver:  Solving for omega, Initial residual = 0.000310452, Final residual = 1.53006e-05, No Iterations 2
smoothSolver:  Solving for k, Initial residual = 0.0223718, Final residual = 0.00029244, No Iterations 2
ExecutionTime = 12.51 s  ClockTime = 12 s

forces forcesFish write:
    Sum of forces
        Total    : (-0.0105545 0.00105447 0.0026846)
        Pressure : (-0.19649 0.00106109 0.00268314)
        Viscous  : (0.185936 -6.61528e-06 1.46008e-06)
    Sum of moments
        Total    : (-7.30766e-08 -0.000691073 0.000173325)
        Pressure : (-9.69286e-08 -0.000690084 0.000174966)
        Viscous  : (2.3852e-08 -9.88282e-07 -1.64087e-06)
    writing force and moment files.

Time = 8

smoothSolver:  Solving for Ux, Initial residual = 0.00616408, Final residual = 0.000248253, No Iterations 2
smoothSolver:  Solving for Uy, Initial residual = 0.102213, Final residual = 0.0069036, No Iterations 2
smoothSolver:  Solving for Uz, Initial residual = 0.0997641, Final residual = 0.00674174, No Iterations 2
GAMG:  Solving for p, Initial residual = 0.0977126, Final residual = 0.00855634, No Iterations 2
time step continuity errors : sum local = 0.00225085, global = 0.000449794, cumulative = 0.00209461
smoothSolver:  Solving for omega, Initial residual = 0.000260623, Final residual = 1.21111e-05, No Iterations 2
smoothSolver:  Solving for k, Initial residual = 0.0195061, Final residual = 0.000268122, No Iterations 2
ExecutionTime = 13.78 s  ClockTime = 13 s

forces forcesFish write:
    Sum of forces
        Total    : (-0.0718097 0.00126222 0.00147935)
        Pressure : (-0.253809 0.00127008 0.00147801)
        Viscous  : (0.181999 -7.86104e-06 1.34654e-06)
    Sum of moments
        Total    : (-8.41054e-08 -0.000551826 0.000184656)
        Pressure : (-1.10557e-07 -0.000550492 0.000185855)
        Viscous  : (2.64512e-08 -1.33481e-06 -1.19924e-06)
    writing force and moment files.

Time = 9

smoothSolver:  Solving for Ux, Initial residual = 0.0062993, Final residual = 0.00025547, No Iterations 2
smoothSolver:  Solving for Uy, Initial residual = 0.108754, Final residual = 0.00751127, No Iterations 2
smoothSolver:  Solving for Uz, Initial residual = 0.10791, Final residual = 0.00741368, No Iterations 2
GAMG:  Solving for p, Initial residual = 0.113895, Final residual = 0.00997567, No Iterations 2
time step continuity errors : sum local = 0.00276176, global = 0.000478044, cumulative = 0.00257265
smoothSolver:  Solving for omega, Initial residual = 0.000216662, Final residual = 9.77693e-06, No Iterations 2
smoothSolver:  Solving for k, Initial residual = 0.0173896, Final residual = 0.000247154, No Iterations 2
ExecutionTime = 15 s  ClockTime = 15 s

forces forcesFish write:
    Sum of forces
        Total    : (-0.0502859 0.00138087 -1.70158e-05)
        Pressure : (-0.228698 0.00138863 -1.73874e-05)
        Viscous  : (0.178412 -7.7678e-06 3.71568e-07)
    Sum of moments
        Total    : (-7.83096e-08 -0.00032086 0.000161907)
        Pressure : (-1.03854e-07 -0.000319635 0.000162651)
        Viscous  : (2.55447e-08 -1.22487e-06 -7.43538e-07)
    writing force and moment files.

Time = 10

smoothSolver:  Solving for Ux, Initial residual = 0.00574366, Final residual = 0.000224755, No Iterations 2
smoothSolver:  Solving for Uy, Initial residual = 0.0924927, Final residual = 0.00634697, No Iterations 2
smoothSolver:  Solving for Uz, Initial residual = 0.0942345, Final residual = 0.00637782, No Iterations 2
GAMG:  Solving for p, Initial residual = 0.124045, Final residual = 0.0122423, No Iterations 2
time step continuity errors : sum local = 0.00335426, global = 0.00027894, cumulative = 0.00285159
smoothSolver:  Solving for omega, Initial residual = 0.000181643, Final residual = 8.20108e-06, No Iterations 2
smoothSolver:  Solving for k, Initial residual = 0.0156786, Final residual = 0.000228895, No Iterations 2
ExecutionTime = 16.31 s  ClockTime = 16 s

forces forcesFish write:
    Sum of forces
        Total    : (0.016062 0.00135695 -0.00157373)
        Pressure : (-0.158886 0.00136366 -0.00157223)
        Viscous  : (0.174948 -6.70789e-06 -1.50807e-06)
    Sum of moments
        Total    : (-5.31902e-08 -4.93476e-05 0.000122491)
        Pressure : (-7.63172e-08 -4.8617e-05 0.000122908)
        Viscous  : (2.31269e-08 -7.30547e-07 -4.17499e-07)
    writing force and moment files.

Time = 11

smoothSolver:  Solving for Ux, Initial residual = 0.00514311, Final residual = 0.000178214, No Iterations 2
smoothSolver:  Solving for Uy, Initial residual = 0.0647139, Final residual = 0.00423656, No Iterations 2
smoothSolver:  Solving for Uz, Initial residual = 0.0683347, Final residual = 0.0044095, No Iterations 2
GAMG:  Solving for p, Initial residual = 0.12267, Final residual = 0.00522083, No Iterations 3
time step continuity errors : sum local = 0.00136622, global = -0.000109411, cumulative = 0.00274218
smoothSolver:  Solving for omega, Initial residual = 0.000155983, Final residual = 7.21125e-06, No Iterations 2
smoothSolver:  Solving for k, Initial residual = 0.0142151, Final residual = 0.00021293, No Iterations 2
ExecutionTime = 17.62 s  ClockTime = 17 s

forces forcesFish write:
    Sum of forces
        Total    : (0.105143 0.000614077 -0.00267572)
        Pressure : (-0.0664057 0.000619235 -0.00267207)
        Viscous  : (0.171549 -5.15762e-06 -3.64426e-06)
    Sum of moments
        Total    : (-4.5893e-09 0.000216173 -3.25052e-06)
        Pressure : (-2.58295e-08 0.000216176 -2.9528e-06)
        Viscous  : (2.12402e-08 -2.73691e-09 -2.97727e-07)
    writing force and moment files.

Time = 12

smoothSolver:  Solving for Ux, Initial residual = 0.00442891, Final residual = 0.000125035, No Iterations 2
smoothSolver:  Solving for Uy, Initial residual = 0.0459887, Final residual = 0.00214713, No Iterations 2
smoothSolver:  Solving for Uz, Initial residual = 0.0479773, Final residual = 0.00220243, No Iterations 2
GAMG:  Solving for p, Initial residual = 0.112989, Final residual = 0.00522516, No Iterations 3
time step continuity errors : sum local = 0.00123993, global = -0.000266967, cumulative = 0.00247522
smoothSolver:  Solving for omega, Initial residual = 0.000139265, Final residual = 6.52691e-06, No Iterations 2
smoothSolver:  Solving for k, Initial residual = 0.0129408, Final residual = 0.000198279, No Iterations 2
ExecutionTime = 18.9 s  ClockTime = 19 s

forces forcesFish write:
    Sum of forces
        Total    : (0.186792 -0.00023026 -0.00285196)
        Pressure : (0.0185986 -0.000227176 -0.00284695)
        Viscous  : (0.168193 -3.08463e-06 -5.01176e-06)
    Sum of moments
        Total    : (4.00649e-08 0.00038377 -0.000108423)
        Pressure : (2.02151e-08 0.00038309 -0.000108182)
        Viscous  : (1.98498e-08 6.79524e-07 -2.41833e-07)
    writing force and moment files.

Time = 13

smoothSolver:  Solving for Ux, Initial residual = 0.00353119, Final residual = 9.05183e-05, No Iterations 2
smoothSolver:  Solving for Uy, Initial residual = 0.0500187, Final residual = 0.00227742, No Iterations 2
smoothSolver:  Solving for Uz, Initial residual = 0.0508008, Final residual = 0.00224885, No Iterations 2
GAMG:  Solving for p, Initial residual = 0.106107, Final residual = 0.00982027, No Iterations 2
time step continuity errors : sum local = 0.00200933, global = -0.000421717, cumulative = 0.0020535
smoothSolver:  Solving for omega, Initial residual = 0.000131233, Final residual = 6.04192e-06, No Iterations 2
smoothSolver:  Solving for k, Initial residual = 0.0117953, Final residual = 0.000183806, No Iterations 2
ExecutionTime = 20.15 s  ClockTime = 20 s

forces forcesFish write:
    Sum of forces
        Total    : (0.239846 -0.000635487 -0.0026434)
        Pressure : (0.0749028 -0.000634538 -0.00263769)
        Viscous  : (0.164943 -9.4933e-07 -5.70401e-06)
    Sum of moments
        Total    : (7.16765e-08 0.000453327 -0.000150661)
        Pressure : (5.25053e-08 0.000452111 -0.000150426)
        Viscous  : (1.91712e-08 1.21592e-06 -2.34901e-07)
    writing force and moment files.

Time = 14

smoothSolver:  Solving for Ux, Initial residual = 0.00283642, Final residual = 8.13734e-05, No Iterations 2
smoothSolver:  Solving for Uy, Initial residual = 0.0571427, Final residual = 0.00299149, No Iterations 2
smoothSolver:  Solving for Uz, Initial residual = 0.0581277, Final residual = 0.00296863, No Iterations 2
GAMG:  Solving for p, Initial residual = 0.112044, Final residual = 0.0093596, No Iterations 2
time step continuity errors : sum local = 0.00169866, global = -0.000182787, cumulative = 0.00187071
smoothSolver:  Solving for omega, Initial residual = 0.000125347, Final residual = 5.78038e-06, No Iterations 2
smoothSolver:  Solving for k, Initial residual = 0.0107304, Final residual = 0.000169601, No Iterations 2
ExecutionTime = 21.43 s  ClockTime = 21 s

forces forcesFish write:
    Sum of forces
        Total    : (0.269421 -0.00115466 -0.00171514)
        Pressure : (0.107534 -0.00115523 -0.00170942)
        Viscous  : (0.161887 5.69604e-07 -5.72021e-06)
    Sum of moments
        Total    : (9.28641e-08 0.000430345 -0.000197051)
        Pressure : (7.31756e-08 0.000428787 -0.000196778)
        Viscous  : (1.96885e-08 1.55814e-06 -2.72968e-07)
    writing force and moment files.

Time = 15

smoothSolver:  Solving for Ux, Initial residual = 0.00219058, Final residual = 7.24742e-05, No Iterations 2
smoothSolver:  Solving for Uy, Initial residual = 0.0569174, Final residual = 0.0030677, No Iterations 2
smoothSolver:  Solving for Uz, Initial residual = 0.0589843, Final residual = 0.00312091, No Iterations 2
GAMG:  Solving for p, Initial residual = 0.146421, Final residual = 0.0104624, No Iterations 2
time step continuity errors : sum local = 0.00158993, global = 1.25841e-05, cumulative = 0.0018833
smoothSolver:  Solving for omega, Initial residual = 0.000117785, Final residual = 5.47129e-06, No Iterations 2
smoothSolver:  Solving for k, Initial residual = 0.00975211, Final residual = 0.000156863, No Iterations 2
ExecutionTime = 22.68 s  ClockTime = 22 s

forces forcesFish write:
    Sum of forces
        Total    : (0.274475 -0.00150515 -0.000500719)
        Pressure : (0.115397 -0.00150618 -0.000495655)
        Viscous  : (0.159078 1.02422e-06 -5.0634e-06)
    Sum of moments
        Total    : (1.02489e-07 0.000323298 -0.000218977)
        Pressure : (8.1435e-08 0.000321643 -0.000218583)
        Viscous  : (2.10541e-08 1.65466e-06 -3.93989e-07)
    writing force and moment files.

Time = 16

smoothSolver:  Solving for Ux, Initial residual = 0.00199876, Final residual = 6.75821e-05, No Iterations 2
smoothSolver:  Solving for Uy, Initial residual = 0.0492337, Final residual = 0.00255036, No Iterations 2
smoothSolver:  Solving for Uz, Initial residual = 0.052409, Final residual = 0.00268496, No Iterations 2
GAMG:  Solving for p, Initial residual = 0.173454, Final residual = 0.0107648, No Iterations 2
time step continuity errors : sum local = 0.00142268, global = -0.000294293, cumulative = 0.001589
smoothSolver:  Solving for omega, Initial residual = 0.000109824, Final residual = 5.26772e-06, No Iterations 2
smoothSolver:  Solving for k, Initial residual = 0.00885256, Final residual = 0.000146096, No Iterations 2
ExecutionTime = 23.93 s  ClockTime = 24 s

forces forcesFish write:
    Sum of forces
        Total    : (0.261532 -0.001468 0.000361883)
        Pressure : (0.10497 -0.00146853 0.000365941)
        Viscous  : (0.156562 5.31192e-07 -4.05809e-06)
    Sum of moments
        Total    : (1.01376e-07 0.00019429 -0.000195711)
        Pressure : (7.87792e-08 0.000192738 -0.000195122)
        Viscous  : (2.25963e-08 1.55248e-06 -5.88492e-07)
    writing force and moment files.

Time = 17

smoothSolver:  Solving for Ux, Initial residual = 0.00188405, Final residual = 6.14614e-05, No Iterations 2
smoothSolver:  Solving for Uy, Initial residual = 0.0381626, Final residual = 0.00177488, No Iterations 2
smoothSolver:  Solving for Uz, Initial residual = 0.0416389, Final residual = 0.00194791, No Iterations 2
GAMG:  Solving for p, Initial residual = 0.169476, Final residual = 0.0124941, No Iterations 2
time step continuity errors : sum local = 0.00162908, global = -0.000254549, cumulative = 0.00133445
smoothSolver:  Solving for omega, Initial residual = 0.000100412, Final residual = 4.99032e-06, No Iterations 2
smoothSolver:  Solving for k, Initial residual = 0.0080369, Final residual = 0.000136797, No Iterations 2
ExecutionTime = 25.19 s  ClockTime = 25 s

forces forcesFish write:
    Sum of forces
        Total    : (0.241007 -0.00122702 0.000962113)
        Pressure : (0.0866857 -0.00122639 0.00096507)
        Viscous  : (0.154321 -6.25483e-07 -2.95779e-06)
    Sum of moments
        Total    : (9.03151e-08 6.94736e-05 -0.000152863)
        Pressure : (6.65774e-08 6.81426e-05 -0.000152057)
        Viscous  : (2.37377e-08 1.33105e-06 -8.06624e-07)
    writing force and moment files.

Time = 18

smoothSolver:  Solving for Ux, Initial residual = 0.00175978, Final residual = 5.42463e-05, No Iterations 2
smoothSolver:  Solving for Uy, Initial residual = 0.0293679, Final residual = 0.00108569, No Iterations 2
smoothSolver:  Solving for Uz, Initial residual = 0.0321071, Final residual = 0.00121027, No Iterations 2
GAMG:  Solving for p, Initial residual = 0.150345, Final residual = 0.0114763, No Iterations 2
time step continuity errors : sum local = 0.00153569, global = -0.000102323, cumulative = 0.00123213
smoothSolver:  Solving for omega, Initial residual = 9.11346e-05, Final residual = 4.64178e-06, No Iterations 2
smoothSolver:  Solving for k, Initial residual = 0.00729602, Final residual = 0.000128527, No Iterations 2
ExecutionTime = 26.43 s  ClockTime = 26 s

forces forcesFish write:
    Sum of forces
        Total    : (0.219416 -0.00084225 0.00130292)
        Pressure : (0.067082 -0.00084016 0.00130489)
        Viscous  : (0.152335 -2.09027e-06 -1.96167e-06)
    Sum of moments
        Total    : (7.2152e-08 -3.99952e-05 -9.7667e-05)
        Pressure : (4.80071e-08 -4.10527e-05 -9.66658e-05)
        Viscous  : (2.41449e-08 1.05758e-06 -1.00118e-06)
    writing force and moment files.

Time = 19

smoothSolver:  Solving for Ux, Initial residual = 0.00162255, Final residual = 4.76678e-05, No Iterations 2
smoothSolver:  Solving for Uy, Initial residual = 0.024924, Final residual = 0.000780119, No Iterations 2
smoothSolver:  Solving for Uz, Initial residual = 0.0269552, Final residual = 0.000817383, No Iterations 2
GAMG:  Solving for p, Initial residual = 0.124975, Final residual = 0.00886826, No Iterations 2
time step continuity errors : sum local = 0.00124142, global = 8.37176e-05, cumulative = 0.00131585
smoothSolver:  Solving for omega, Initial residual = 8.33817e-05, Final residual = 4.29421e-06, No Iterations 2
smoothSolver:  Solving for k, Initial residual = 0.0066203, Final residual = 0.000120914, No Iterations 2
ExecutionTime = 27.69 s  ClockTime = 27 s

forces forcesFish write:
    Sum of forces
        Total    : (0.201208 -0.000362304 0.00136249)
        Pressure : (0.0506412 -0.000358785 0.00136372)
        Viscous  : (0.150567 -3.51989e-06 -1.23072e-06)
    Sum of moments
        Total    : (5.07855e-08 -0.000122697 -3.51066e-05)
        Pressure : (2.69833e-08 -0.000123488 -3.3962e-05)
        Viscous  : (2.38023e-08 7.91055e-07 -1.14459e-06)
    writing force and moment files.

Time = 20

smoothSolver:  Solving for Ux, Initial residual = 0.00150043, Final residual = 4.28906e-05, No Iterations 2
smoothSolver:  Solving for Uy, Initial residual = 0.0238166, Final residual = 0.000910986, No Iterations 2
smoothSolver:  Solving for Uz, Initial residual = 0.0253139, Final residual = 0.000900775, No Iterations 2
GAMG:  Solving for p, Initial residual = 0.101546, Final residual = 0.00585242, No Iterations 2
time step continuity errors : sum local = 0.000852587, global = 0.000161104, cumulative = 0.00147695
smoothSolver:  Solving for omega, Initial residual = 7.67455e-05, Final residual = 3.99122e-06, No Iterations 2
smoothSolver:  Solving for k, Initial residual = 0.00600142, Final residual = 0.000113724, No Iterations 2
ExecutionTime = 29 s  ClockTime = 29 s

forces forcesFish write:
    Sum of forces
        Total    : (0.188231 0.000191303 0.00115573)
        Pressure : (0.0392545 0.000195939 0.00115659)
        Viscous  : (0.148977 -4.6364e-06 -8.57819e-07)
    Sum of moments
        Total    : (2.99801e-08 -0.00018048 3.06984e-05)
        Pressure : (7.0693e-09 -0.000181045 3.19249e-05)
        Viscous  : (2.29108e-08 5.65266e-07 -1.22654e-06)
    writing force and moment files.

Time = 21

smoothSolver:  Solving for Ux, Initial residual = 0.00130735, Final residual = 3.86099e-05, No Iterations 2
smoothSolver:  Solving for Uy, Initial residual = 0.0235406, Final residual = 0.00101317, No Iterations 2
smoothSolver:  Solving for Uz, Initial residual = 0.0251502, Final residual = 0.00103042, No Iterations 2
GAMG:  Solving for p, Initial residual = 0.0836643, Final residual = 0.0062724, No Iterations 2
time step continuity errors : sum local = 0.000967621, global = -5.2696e-05, cumulative = 0.00142426
smoothSolver:  Solving for omega, Initial residual = 7.08021e-05, Final residual = 3.73755e-06, No Iterations 2
smoothSolver:  Solving for k, Initial residual = 0.00542929, Final residual = 0.000106904, No Iterations 2
ExecutionTime = 30.27 s  ClockTime = 30 s

forces forcesFish write:
    Sum of forces
        Total    : (0.180796 0.000776787 0.000683293)
        Pressure : (0.0332691 0.00078203 0.000684158)
        Viscous  : (0.147527 -5.2429e-06 -8.64664e-07)
    Sum of moments
        Total    : (1.31906e-08 -0.000210098 9.32795e-05)
        Pressure : (-8.56821e-09 -0.000210487 9.45342e-05)
        Viscous  : (2.17588e-08 3.89743e-07 -1.25467e-06)
    writing force and moment files.

Time = 22

smoothSolver:  Solving for Ux, Initial residual = 0.00100228, Final residual = 3.31278e-05, No Iterations 2
smoothSolver:  Solving for Uy, Initial residual = 0.023558, Final residual = 0.00102386, No Iterations 2
smoothSolver:  Solving for Uz, Initial residual = 0.0251412, Final residual = 0.00106992, No Iterations 2
GAMG:  Solving for p, Initial residual = 0.0727824, Final residual = 0.00472797, No Iterations 2
time step continuity errors : sum local = 0.000802343, global = -9.37541e-05, cumulative = 0.0013305
smoothSolver:  Solving for omega, Initial residual = 6.50906e-05, Final residual = 3.5023e-06, No Iterations 2
smoothSolver:  Solving for k, Initial residual = 0.00490313, Final residual = 0.000100515, No Iterations 2
ExecutionTime = 31.5 s  ClockTime = 31 s

forces forcesFish write:
    Sum of forces
        Total    : (0.178931 0.00110232 0.000185585)
        Pressure : (0.0327423 0.00110765 0.000186719)
        Viscous  : (0.146189 -5.33202e-06 -1.13407e-06)
    Sum of moments
        Total    : (2.10783e-09 -0.000196273 0.000130531)
        Pressure : (-1.85437e-08 -0.000196546 0.000131768)
        Viscous  : (2.06515e-08 2.73517e-07 -1.23726e-06)
    writing force and moment files.

Time = 23

smoothSolver:  Solving for Ux, Initial residual = 0.000869707, Final residual = 2.97537e-05, No Iterations 2
smoothSolver:  Solving for Uy, Initial residual = 0.0215486, Final residual = 0.000863031, No Iterations 2
smoothSolver:  Solving for Uz, Initial residual = 0.0233118, Final residual = 0.000935011, No Iterations 2
GAMG:  Solving for p, Initial residual = 0.0663761, Final residual = 0.0031198, No Iterations 2
time step continuity errors : sum local = 0.000561584, global = 4.16424e-05, cumulative = 0.00137215
smoothSolver:  Solving for omega, Initial residual = 5.94244e-05, Final residual = 3.27088e-06, No Iterations 2
smoothSolver:  Solving for k, Initial residual = 0.00441932, Final residual = 9.44181e-05, No Iterations 2
ExecutionTime = 32.76 s  ClockTime = 32 s

forces forcesFish write:
    Sum of forces
        Total    : (0.180812 0.00108727 -0.000152288)
        Pressure : (0.0358806 0.00109232 -0.000150779)
        Viscous  : (0.144931 -5.05255e-06 -1.50927e-06)
    Sum of moments
        Total    : (-3.08722e-09 -0.00015288 0.000129703)
        Pressure : (-2.30273e-08 -0.000153103 0.000130893)
        Viscous  : (1.99401e-08 2.22992e-07 -1.18969e-06)
    writing force and moment files.

Time = 24

smoothSolver:  Solving for Ux, Initial residual = 0.00079244, Final residual = 2.70586e-05, No Iterations 2
smoothSolver:  Solving for Uy, Initial residual = 0.0181793, Final residual = 0.000645013, No Iterations 2
smoothSolver:  Solving for Uz, Initial residual = 0.0199153, Final residual = 0.000714434, No Iterations 2
GAMG:  Solving for p, Initial residual = 0.0625877, Final residual = 0.00308458, No Iterations 2
time step continuity errors : sum local = 0.000561269, global = 7.98341e-05, cumulative = 0.00145198
smoothSolver:  Solving for omega, Initial residual = 5.45124e-05, Final residual = 3.07152e-06, No Iterations 2
smoothSolver:  Solving for k, Initial residual = 0.00397379, Final residual = 8.86732e-05, No Iterations 2
ExecutionTime = 34.02 s  ClockTime = 34 s

forces forcesFish write:
    Sum of forces
        Total    : (0.184152 0.000860166 -0.000325565)
        Pressure : (0.0404061 0.000864743 -0.000323721)
        Viscous  : (0.143746 -4.57747e-06 -1.84416e-06)
    Sum of moments
        Total    : (-2.64967e-09 -0.000101033 0.000101175)
        Pressure : (-2.24659e-08 -0.000101251 0.000102311)
        Viscous  : (1.98162e-08 2.17808e-07 -1.13643e-06)
    writing force and moment files.

Time = 25

smoothSolver:  Solving for Ux, Initial residual = 0.000731875, Final residual = 2.48337e-05, No Iterations 2
smoothSolver:  Solving for Uy, Initial residual = 0.0153466, Final residual = 0.000493151, No Iterations 2
smoothSolver:  Solving for Uz, Initial residual = 0.016866, Final residual = 0.000532173, No Iterations 2
GAMG:  Solving for p, Initial residual = 0.0602286, Final residual = 0.00310676, No Iterations 2
time step continuity errors : sum local = 0.000559532, global = 3.0825e-05, cumulative = 0.0014828
smoothSolver:  Solving for omega, Initial residual = 5.07716e-05, Final residual = 2.90648e-06, No Iterations 2
smoothSolver:  Solving for k, Initial residual = 0.00356529, Final residual = 8.33269e-05, No Iterations 2
ExecutionTime = 35.28 s  ClockTime = 35 s

forces forcesFish write:
    Sum of forces
        Total    : (0.187397 0.000532211 -0.000382345)
        Pressure : (0.0447701 0.000536261 -0.000380298)
        Viscous  : (0.142627 -4.04976e-06 -2.04643e-06)
    Sum of moments
        Total    : (2.47133e-09 -4.88994e-05 5.83801e-05)
        Pressure : (-1.77351e-08 -4.91361e-05 5.94741e-05)
        Viscous  : (2.02065e-08 2.36717e-07 -1.09395e-06)
    writing force and moment files.

Time = 26

smoothSolver:  Solving for Ux, Initial residual = 0.000678576, Final residual = 2.312e-05, No Iterations 2
smoothSolver:  Solving for Uy, Initial residual = 0.0131734, Final residual = 0.000407122, No Iterations 2
smoothSolver:  Solving for Uz, Initial residual = 0.0144865, Final residual = 0.000431519, No Iterations 2
GAMG:  Solving for p, Initial residual = 0.0554145, Final residual = 0.00257715, No Iterations 2
time step continuity errors : sum local = 0.000456705, global = -4.24447e-05, cumulative = 0.00144036
smoothSolver:  Solving for omega, Initial residual = 4.77278e-05, Final residual = 2.77329e-06, No Iterations 2
smoothSolver:  Solving for k, Initial residual = 0.00319379, Final residual = 7.83675e-05, No Iterations 2
ExecutionTime = 36.53 s  ClockTime = 36 s

forces forcesFish write:
    Sum of forces
        Total    : (0.189644 0.000164697 -0.000353228)
        Pressure : (0.0480799 0.00016829 -0.000351146)
        Viscous  : (0.141564 -3.59361e-06 -2.08278e-06)
    Sum of moments
        Total    : (1.07157e-08 -3.31377e-07 9.85167e-06)
        Pressure : (-1.0212e-08 -5.98718e-07 1.09214e-05)
        Viscous  : (2.09277e-08 2.67341e-07 -1.0697e-06)
    writing force and moment files.

Time = 27

smoothSolver:  Solving for Ux, Initial residual = 0.000646691, Final residual = 2.20532e-05, No Iterations 2
smoothSolver:  Solving for Uy, Initial residual = 0.0113686, Final residual = 0.000371057, No Iterations 2
smoothSolver:  Solving for Uz, Initial residual = 0.0126186, Final residual = 0.000380217, No Iterations 2
GAMG:  Solving for p, Initial residual = 0.0494336, Final residual = 0.00215102, No Iterations 2
time step continuity errors : sum local = 0.000374427, global = -4.14932e-05, cumulative = 0.00139887
smoothSolver:  Solving for omega, Initial residual = 4.52385e-05, Final residual = 2.67335e-06, No Iterations 2
smoothSolver:  Solving for k, Initial residual = 0.0028591, Final residual = 7.38209e-05, No Iterations 2
ExecutionTime = 37.77 s  ClockTime = 37 s

forces forcesFish write:
    Sum of forces
        Total    : (0.190581 -0.000207809 -0.000261441)
        Pressure : (0.0500234 -0.000204501 -0.000259476)
        Viscous  : (0.140558 -3.30777e-06 -1.96509e-06)
    Sum of moments
        Total    : (2.025e-08 4.48003e-05 -3.6618e-05)
        Pressure : (-1.5061e-09 4.44957e-05 -3.55531e-05)
        Viscous  : (2.17561e-08 3.04582e-07 -1.06488e-06)
    writing force and moment files.

Time = 28

smoothSolver:  Solving for Ux, Initial residual = 0.000600354, Final residual = 2.12067e-05, No Iterations 2
smoothSolver:  Solving for Uy, Initial residual = 0.0101115, Final residual = 0.000337685, No Iterations 2
smoothSolver:  Solving for Uz, Initial residual = 0.0110511, Final residual = 0.000343376, No Iterations 2
GAMG:  Solving for p, Initial residual = 0.0447536, Final residual = 0.0025574, No Iterations 2
time step continuity errors : sum local = 0.000432136, global = 5.36605e-05, cumulative = 0.00145253
smoothSolver:  Solving for omega, Initial residual = 4.31584e-05, Final residual = 2.5985e-06, No Iterations 2
smoothSolver:  Solving for k, Initial residual = 0.00255613, Final residual = 6.96068e-05, No Iterations 2
ExecutionTime = 38.98 s  ClockTime = 39 s

forces forcesFish write:
    Sum of forces
        Total    : (0.190358 -0.000503995 -0.000159313)
        Pressure : (0.050751 -0.00050076 -0.000157552)
        Viscous  : (0.139607 -3.23559e-06 -1.7606e-06)
    Sum of moments
        Total    : (2.91493e-08 8.31392e-05 -7.0995e-05)
        Pressure : (6.66406e-09 8.27911e-05 -6.99185e-05)
        Viscous  : (2.24853e-08 3.4808e-07 -1.07646e-06)
    writing force and moment files.

Time = 29

smoothSolver:  Solving for Ux, Initial residual = 0.000494533, Final residual = 1.99768e-05, No Iterations 2
smoothSolver:  Solving for Uy, Initial residual = 0.00942871, Final residual = 0.000294683, No Iterations 2
smoothSolver:  Solving for Uz, Initial residual = 0.0103565, Final residual = 0.000316251, No Iterations 2
GAMG:  Solving for p, Initial residual = 0.0410817, Final residual = 0.00228823, No Iterations 2
time step continuity errors : sum local = 0.000368443, global = 5.6131e-05, cumulative = 0.00150866
smoothSolver:  Solving for omega, Initial residual = 4.13395e-05, Final residual = 2.5372e-06, No Iterations 2
smoothSolver:  Solving for k, Initial residual = 0.00228151, Final residual = 6.57056e-05, No Iterations 2
ExecutionTime = 40.23 s  ClockTime = 40 s

forces forcesFish write:
    Sum of forces
        Total    : (0.189213 -0.00062335 -9.37677e-05)
        Pressure : (0.0505046 -0.000620007 -9.22217e-05)
        Viscous  : (0.138708 -3.34328e-06 -1.54594e-06)
    Sum of moments
        Total    : (3.60796e-08 0.000102385 -8.60111e-05)
        Pressure : (1.31597e-08 0.000101993 -8.49098e-05)
        Viscous  : (2.292e-08 3.91519e-07 -1.10132e-06)
    writing force and moment files.

Time = 30

smoothSolver:  Solving for Ux, Initial residual = 0.000432954, Final residual = 1.89492e-05, No Iterations 2
smoothSolver:  Solving for Uy, Initial residual = 0.00852465, Final residual = 0.000230853, No Iterations 2
smoothSolver:  Solving for Uz, Initial residual = 0.00946275, Final residual = 0.000257817, No Iterations 2
GAMG:  Solving for p, Initial residual = 0.0373466, Final residual = 0.00181663, No Iterations 2
time step continuity errors : sum local = 0.000281053, global = 2.23982e-05, cumulative = 0.00153106
smoothSolver:  Solving for omega, Initial residual = 3.99895e-05, Final residual = 2.48434e-06, No Iterations 2
smoothSolver:  Solving for k, Initial residual = 0.00203633, Final residual = 6.21486e-05, No Iterations 2
ExecutionTime = 41.5 s  ClockTime = 41 s

forces forcesFish write:
    Sum of forces
        Total    : (0.187485 -0.000568386 -6.3395e-05)
        Pressure : (0.0496245 -0.000564829 -6.20216e-05)
        Viscous  : (0.137861 -3.55684e-06 -1.3734e-06)
    Sum of moments
        Total    : (4.03715e-08 0.000100621 -7.93265e-05)
        Pressure : (1.74157e-08 0.000100193 -7.81949e-05)
        Viscous  : (2.29558e-08 4.27703e-07 -1.13155e-06)
    writing force and moment files.

Time = 31

smoothSolver:  Solving for Ux, Initial residual = 0.000399088, Final residual = 1.80606e-05, No Iterations 2
smoothSolver:  Solving for Uy, Initial residual = 0.00747215, Final residual = 0.000173844, No Iterations 2
smoothSolver:  Solving for Uz, Initial residual = 0.00835984, Final residual = 0.000193465, No Iterations 2
GAMG:  Solving for p, Initial residual = 0.0335418, Final residual = 0.00130425, No Iterations 2
time step continuity errors : sum local = 0.00019721, global = -2.26557e-06, cumulative = 0.00152879
smoothSolver:  Solving for omega, Initial residual = 3.8953e-05, Final residual = 2.43905e-06, No Iterations 2
smoothSolver:  Solving for k, Initial residual = 0.00181916, Final residual = 5.89155e-05, No Iterations 2
ExecutionTime = 42.75 s  ClockTime = 42 s

forces forcesFish write:
    Sum of forces
        Total    : (0.185554 -0.00040397 -5.2598e-05)
        Pressure : (0.0484958 -0.000400164 -5.13285e-05)
        Viscous  : (0.137059 -3.8058e-06 -1.26945e-06)
    Sum of moments
        Total    : (4.18635e-08 8.35353e-05 -5.62597e-05)
        Pressure : (1.92616e-08 8.30818e-05 -5.51037e-05)
        Viscous  : (2.26019e-08 4.53491e-07 -1.15603e-06)
    writing force and moment files.

Time = 32

smoothSolver:  Solving for Ux, Initial residual = 0.000370872, Final residual = 1.71972e-05, No Iterations 2
smoothSolver:  Solving for Uy, Initial residual = 0.00659849, Final residual = 0.000151577, No Iterations 2
smoothSolver:  Solving for Uz, Initial residual = 0.00741008, Final residual = 0.000159883, No Iterations 2
GAMG:  Solving for p, Initial residual = 0.0306479, Final residual = 0.00110145, No Iterations 2
time step continuity errors : sum local = 0.000165013, global = 3.53822e-06, cumulative = 0.00153233
smoothSolver:  Solving for omega, Initial residual = 3.81336e-05, Final residual = 2.39486e-06, No Iterations 2
smoothSolver:  Solving for k, Initial residual = 0.00162783, Final residual = 5.59649e-05, No Iterations 2
ExecutionTime = 44.03 s  ClockTime = 44 s

forces forcesFish write:
    Sum of forces
        Total    : (0.183746 -0.000200094 -4.89855e-05)
        Pressure : (0.0474497 -0.000196062 -4.77463e-05)
        Viscous  : (0.136297 -4.03259e-06 -1.23925e-06)
    Sum of moments
        Total    : (4.08568e-08 5.87473e-05 -2.55835e-05)
        Pressure : (1.88909e-08 5.8279e-05 -2.44164e-05)
        Viscous  : (2.19659e-08 4.68288e-07 -1.16705e-06)
    writing force and moment files.

Time = 33

smoothSolver:  Solving for Ux, Initial residual = 0.000355626, Final residual = 1.64673e-05, No Iterations 2
smoothSolver:  Solving for Uy, Initial residual = 0.0058699, Final residual = 0.000145035, No Iterations 2
smoothSolver:  Solving for Uz, Initial residual = 0.00666685, Final residual = 0.000151918, No Iterations 2
GAMG:  Solving for p, Initial residual = 0.0282464, Final residual = 0.000923166, No Iterations 2
time step continuity errors : sum local = 0.000138056, global = 2.62364e-05, cumulative = 0.00155857
smoothSolver:  Solving for omega, Initial residual = 3.73079e-05, Final residual = 2.34733e-06, No Iterations 2
smoothSolver:  Solving for k, Initial residual = 0.00145962, Final residual = 5.32585e-05, No Iterations 2
ExecutionTime = 45.27 s  ClockTime = 45 s

forces forcesFish write:
    Sum of forces
        Total    : (0.182264 3.75762e-06 -4.77089e-05)
        Pressure : (0.0466935 7.94801e-06 -4.64345e-05)
        Viscous  : (0.13557 -4.19039e-06 -1.27443e-06)
    Sum of moments
        Total    : (3.80172e-08 3.12276e-05 5.98247e-06)
        Pressure : (1.68105e-08 3.07546e-05 7.1446e-06)
        Viscous  : (2.12066e-08 4.73008e-07 -1.16213e-06)
    writing force and moment files.

Time = 34

smoothSolver:  Solving for Ux, Initial residual = 0.000343245, Final residual = 1.58642e-05, No Iterations 2
smoothSolver:  Solving for Uy, Initial residual = 0.00524371, Final residual = 0.000138793, No Iterations 2
smoothSolver:  Solving for Uz, Initial residual = 0.00600885, Final residual = 0.000147012, No Iterations 2
GAMG:  Solving for p, Initial residual = 0.0259027, Final residual = 0.00109633, No Iterations 2
time step continuity errors : sum local = 0.000164352, global = 3.86079e-06, cumulative = 0.00156243
smoothSolver:  Solving for omega, Initial residual = 3.63952e-05, Final residual = 2.294e-06, No Iterations 2
smoothSolver:  Solving for k, Initial residual = 0.00131259, Final residual = 5.07693e-05, No Iterations 2
ExecutionTime = 46.48 s  ClockTime = 46 s

forces forcesFish write:
    Sum of forces
        Total    : (0.181128 0.000183942 -4.28128e-05)
        Pressure : (0.046252 0.000188193 -4.14664e-05)
        Viscous  : (0.134876 -4.25102e-06 -1.3464e-06)
    Sum of moments
        Total    : (3.42176e-08 2.44923e-06 3.18814e-05)
        Pressure : (1.37233e-08 1.98348e-06 3.30244e-05)
        Viscous  : (2.04942e-08 4.6575e-07 -1.14296e-06)
    writing force and moment files.

Time = 35

smoothSolver:  Solving for Ux, Initial residual = 0.000313347, Final residual = 1.51238e-05, No Iterations 2
smoothSolver:  Solving for Uy, Initial residual = 0.00474092, Final residual = 0.00013243, No Iterations 2
smoothSolver:  Solving for Uz, Initial residual = 0.00544739, Final residual = 0.000143666, No Iterations 2
GAMG:  Solving for p, Initial residual = 0.0231179, Final residual = 0.00108225, No Iterations 2
time step continuity errors : sum local = 0.000164373, global = -1.87979e-05, cumulative = 0.00154363
smoothSolver:  Solving for omega, Initial residual = 3.54002e-05, Final residual = 2.23505e-06, No Iterations 2
smoothSolver:  Solving for k, Initial residual = 0.0011854, Final residual = 4.84791e-05, No Iterations 2
ExecutionTime = 47.79 s  ClockTime = 47 s

forces forcesFish write:
    Sum of forces
        Total    : (0.180236 0.000278155 -2.06761e-05)
        Pressure : (0.046027 0.000282392 -1.92579e-05)
        Viscous  : (0.134209 -4.23612e-06 -1.41819e-06)
    Sum of moments
        Total    : (3.04662e-08 -2.08771e-05 4.33319e-05)
        Pressure : (1.04827e-08 -2.13252e-05 4.44497e-05)
        Viscous  : (1.99835e-08 4.48083e-07 -1.11787e-06)
    writing force and moment files.

Time = 36

smoothSolver:  Solving for Ux, Initial residual = 0.000271008, Final residual = 1.42454e-05, No Iterations 2
smoothSolver:  Solving for Uy, Initial residual = 0.00426415, Final residual = 0.000120404, No Iterations 2
smoothSolver:  Solving for Uz, Initial residual = 0.00488211, Final residual = 0.000132804, No Iterations 2
GAMG:  Solving for p, Initial residual = 0.020719, Final residual = 0.000944096, No Iterations 2
time step continuity errors : sum local = 0.000146271, global = -1.84226e-05, cumulative = 0.00152521
smoothSolver:  Solving for omega, Initial residual = 3.43424e-05, Final residual = 2.17147e-06, No Iterations 2
smoothSolver:  Solving for k, Initial residual = 0.00107554, Final residual = 4.63643e-05, No Iterations 2
ExecutionTime = 49.04 s  ClockTime = 49 s

forces forcesFish write:
    Sum of forces
        Total    : (0.179559 0.000270169 8.16256e-06)
        Pressure : (0.0459918 0.000274353 9.62988e-06)
        Viscous  : (0.133568 -4.1843e-06 -1.46732e-06)
    Sum of moments
        Total    : (2.74623e-08 -3.21348e-05 4.01031e-05)
        Pressure : (7.72289e-09 -3.25604e-05 4.11966e-05)
        Viscous  : (1.97394e-08 4.25616e-07 -1.0935e-06)
    writing force and moment files.

Time = 37

smoothSolver:  Solving for Ux, Initial residual = 0.000253219, Final residual = 1.35519e-05, No Iterations 2
smoothSolver:  Solving for Uy, Initial residual = 0.00383628, Final residual = 0.000104955, No Iterations 2
smoothSolver:  Solving for Uz, Initial residual = 0.00434064, Final residual = 0.000115091, No Iterations 2
GAMG:  Solving for p, Initial residual = 0.0186304, Final residual = 0.000750754, No Iterations 2
time step continuity errors : sum local = 0.000118193, global = -1.14754e-05, cumulative = 0.00151373
smoothSolver:  Solving for omega, Initial residual = 3.32319e-05, Final residual = 2.1041e-06, No Iterations 2
smoothSolver:  Solving for k, Initial residual = 0.000980847, Final residual = 4.44026e-05, No Iterations 2
ExecutionTime = 50.36 s  ClockTime = 50 s

forces forcesFish write:
    Sum of forces
        Total    : (0.179049 0.000196542 3.11759e-05)
        Pressure : (0.0461008 0.000200663 3.26594e-05)
        Viscous  : (0.132948 -4.12086e-06 -1.48343e-06)
    Sum of moments
        Total    : (2.55397e-08 -3.21495e-05 2.73605e-05)
        Pressure : (5.80818e-09 -3.25533e-05 2.84341e-05)
        Viscous  : (1.97316e-08 4.03857e-07 -1.07361e-06)
    writing force and moment files.

Time = 38

smoothSolver:  Solving for Ux, Initial residual = 0.000238585, Final residual = 1.29672e-05, No Iterations 2
smoothSolver:  Solving for Uy, Initial residual = 0.0034799, Final residual = 9.22026e-05, No Iterations 2
smoothSolver:  Solving for Uz, Initial residual = 0.00390305, Final residual = 9.8524e-05, No Iterations 2
GAMG:  Solving for p, Initial residual = 0.0166597, Final residual = 0.000560433, No Iterations 2
time step continuity errors : sum local = 8.90149e-05, global = -5.44493e-06, cumulative = 0.00150829
smoothSolver:  Solving for omega, Initial residual = 3.21124e-05, Final residual = 2.03375e-06, No Iterations 2
smoothSolver:  Solving for k, Initial residual = 0.000899543, Final residual = 4.25774e-05, No Iterations 2
ExecutionTime = 51.64 s  ClockTime = 51 s

forces forcesFish write:
    Sum of forces
        Total    : (0.178627 0.00010348 4.15991e-05)
        Pressure : (0.0462784 0.000107536 4.30643e-05)
        Viscous  : (0.132348 -4.05616e-06 -1.46525e-06)
    Sum of moments
        Total    : (2.47494e-08 -2.52172e-05 1.13184e-05)
        Pressure : (4.87965e-09 -2.56033e-05 1.23787e-05)
        Viscous  : (1.98698e-08 3.86089e-07 -1.06028e-06)
    writing force and moment files.

Time = 39

smoothSolver:  Solving for Ux, Initial residual = 0.000225689, Final residual = 1.24909e-05, No Iterations 2
smoothSolver:  Solving for Uy, Initial residual = 0.00313717, Final residual = 8.29805e-05, No Iterations 2
smoothSolver:  Solving for Uz, Initial residual = 0.00352762, Final residual = 8.64264e-05, No Iterations 2
GAMG:  Solving for p, Initial residual = 0.0148553, Final residual = 0.000471626, No Iterations 2
time step continuity errors : sum local = 7.51253e-05, global = -1.09111e-05, cumulative = 0.00149737
smoothSolver:  Solving for omega, Initial residual = 3.09769e-05, Final residual = 1.96079e-06, No Iterations 2
smoothSolver:  Solving for k, Initial residual = 0.000829783, Final residual = 4.08712e-05, No Iterations 2
ExecutionTime = 52.87 s  ClockTime = 52 s

forces forcesFish write:
    Sum of forces
        Total    : (0.178205 1.69247e-05 3.98701e-05)
        Pressure : (0.0464381 2.09227e-05 4.12867e-05)
        Viscous  : (0.131767 -3.99794e-06 -1.41658e-06)
    Sum of moments
        Total    : (2.49362e-08 -1.51781e-05 -4.17619e-06)
        Pressure : (4.88458e-09 -1.55512e-05 -3.12194e-06)
        Viscous  : (2.00517e-08 3.73048e-07 -1.05425e-06)
    writing force and moment files.

Time = 40

smoothSolver:  Solving for Ux, Initial residual = 0.000215206, Final residual = 1.21125e-05, No Iterations 2
smoothSolver:  Solving for Uy, Initial residual = 0.00280104, Final residual = 7.41533e-05, No Iterations 2
smoothSolver:  Solving for Uz, Initial residual = 0.00316799, Final residual = 7.66689e-05, No Iterations 2
GAMG:  Solving for p, Initial residual = 0.013334, Final residual = 0.000394244, No Iterations 2
time step continuity errors : sum local = 6.28102e-05, global = -2.11458e-05, cumulative = 0.00147623
smoothSolver:  Solving for omega, Initial residual = 2.98232e-05, Final residual = 1.88627e-06, No Iterations 2
smoothSolver:  Solving for k, Initial residual = 0.000769952, Final residual = 3.92731e-05, No Iterations 2
ExecutionTime = 54.13 s  ClockTime = 54 s

forces forcesFish write:
    Sum of forces
        Total    : (0.177725 -5.5699e-05 2.78131e-05)
        Pressure : (0.0465221 -5.17416e-05 2.91622e-05)
        Viscous  : (0.131203 -3.95742e-06 -1.34909e-06)
    Sum of moments
        Total    : (2.58145e-08 -3.54892e-06 -1.73795e-05)
        Pressure : (5.62326e-09 -3.91414e-06 -1.63242e-05)
        Viscous  : (2.01912e-08 3.65214e-07 -1.05532e-06)
    writing force and moment files.

Time = 41

smoothSolver:  Solving for Ux, Initial residual = 0.000206446, Final residual = 1.17783e-05, No Iterations 2
smoothSolver:  Solving for Uy, Initial residual = 0.00248812, Final residual = 6.50011e-05, No Iterations 2
smoothSolver:  Solving for Uz, Initial residual = 0.00282548, Final residual = 6.71269e-05, No Iterations 2
GAMG:  Solving for p, Initial residual = 0.0120088, Final residual = 0.000438771, No Iterations 2
time step continuity errors : sum local = 6.98151e-05, global = -9.18996e-06, cumulative = 0.00146704
smoothSolver:  Solving for omega, Initial residual = 2.86851e-05, Final residual = 1.81223e-06, No Iterations 2
smoothSolver:  Solving for k, Initial residual = 0.00071861, Final residual = 3.77721e-05, No Iterations 2
ExecutionTime = 55.39 s  ClockTime = 55 s

forces forcesFish write:
    Sum of forces
        Total    : (0.177185 -0.000107073 5.12833e-06)
        Pressure : (0.0465314 -0.000103134 6.41001e-06)
        Viscous  : (0.130654 -3.93881e-06 -1.28169e-06)
    Sum of moments
        Total    : (2.70473e-08 9.25104e-06 -2.55303e-05)
        Pressure : (6.81536e-09 8.8867e-06 -2.44697e-05)
        Viscous  : (2.02319e-08 3.6434e-07 -1.06058e-06)
    writing force and moment files.

Time = 42

smoothSolver:  Solving for Ux, Initial residual = 0.000191056, Final residual = 1.14082e-05, No Iterations 2
smoothSolver:  Solving for Uy, Initial residual = 0.00220764, Final residual = 5.66148e-05, No Iterations 2
smoothSolver:  Solving for Uz, Initial residual = 0.00253289, Final residual = 5.86374e-05, No Iterations 2
GAMG:  Solving for p, Initial residual = 0.0108889, Final residual = 0.000399461, No Iterations 2
time step continuity errors : sum local = 6.31541e-05, global = 3.04222e-07, cumulative = 0.00146734
smoothSolver:  Solving for omega, Initial residual = 2.75873e-05, Final residual = 1.73975e-06, No Iterations 2
smoothSolver:  Solving for k, Initial residual = 0.000673914, Final residual = 3.63541e-05, No Iterations 2
ExecutionTime = 56.66 s  ClockTime = 56 s

forces forcesFish write:
    Sum of forces
        Total    : (0.176648 -0.000115127 -2.2741e-05)
        Pressure : (0.046527 -0.000111199 -2.15134e-05)
        Viscous  : (0.130121 -3.92722e-06 -1.22759e-06)
    Sum of moments
        Total    : (2.82379e-08 1.8866e-05 -2.48753e-05)
        Pressure : (8.11328e-09 1.8497e-05 -2.38105e-05)
        Viscous  : (2.01247e-08 3.69063e-07 -1.06476e-06)
    writing force and moment files.

Time = 43

smoothSolver:  Solving for Ux, Initial residual = 0.000171516, Final residual = 1.10343e-05, No Iterations 2
smoothSolver:  Solving for Uy, Initial residual = 0.00197791, Final residual = 5.12639e-05, No Iterations 2
smoothSolver:  Solving for Uz, Initial residual = 0.00226338, Final residual = 5.28179e-05, No Iterations 2
GAMG:  Solving for p, Initial residual = 0.00993027, Final residual = 0.000351318, No Iterations 2
time step continuity errors : sum local = 5.49924e-05, global = -3.03142e-07, cumulative = 0.00146704
smoothSolver:  Solving for omega, Initial residual = 2.64855e-05, Final residual = 1.66806e-06, No Iterations 2
smoothSolver:  Solving for k, Initial residual = 0.000635115, Final residual = 3.50051e-05, No Iterations 2
ExecutionTime = 57.91 s  ClockTime = 58 s

forces forcesFish write:
    Sum of forces
        Total    : (0.176098 -8.75604e-05 -4.48753e-05)
        Pressure : (0.0464962 -8.36472e-05 -4.36835e-05)
        Viscous  : (0.129602 -3.91326e-06 -1.19182e-06)
    Sum of moments
        Total    : (2.911e-08 2.27189e-05 -1.8284e-05)
        Pressure : (9.23503e-09 2.23421e-05 -1.7218e-05)
        Viscous  : (1.9875e-08 3.76854e-07 -1.06594e-06)
    writing force and moment files.

Time = 44

smoothSolver:  Solving for Ux, Initial residual = 0.000161697, Final residual = 1.07507e-05, No Iterations 2
smoothSolver:  Solving for Uy, Initial residual = 0.00179709, Final residual = 4.85649e-05, No Iterations 2
smoothSolver:  Solving for Uz, Initial residual = 0.00202106, Final residual = 4.91156e-05, No Iterations 2
GAMG:  Solving for p, Initial residual = 0.00899762, Final residual = 0.000289241, No Iterations 2
time step continuity errors : sum local = 4.49265e-05, global = 1.02631e-06, cumulative = 0.00146807
smoothSolver:  Solving for omega, Initial residual = 2.53884e-05, Final residual = 1.59703e-06, No Iterations 2
smoothSolver:  Solving for k, Initial residual = 0.000601261, Final residual = 3.37219e-05, No Iterations 2
ExecutionTime = 59.15 s  ClockTime = 59 s

forces forcesFish write:
    Sum of forces
        Total    : (0.175526 -4.78071e-05 -5.68512e-05)
        Pressure : (0.0464294 -4.39091e-05 -5.56755e-05)
        Viscous  : (0.129096 -3.89805e-06 -1.17567e-06)
    Sum of moments
        Total    : (2.95333e-08 2.2139e-05 -1.012e-05)
        Pressure : (1.00035e-08 2.17534e-05 -9.05575e-06)
        Viscous  : (1.95299e-08 3.85559e-07 -1.06426e-06)
    writing force and moment files.

Time = 45

smoothSolver:  Solving for Ux, Initial residual = 0.000157166, Final residual = 1.05084e-05, No Iterations 2
smoothSolver:  Solving for Uy, Initial residual = 0.0016661, Final residual = 4.75821e-05, No Iterations 2
smoothSolver:  Solving for Uz, Initial residual = 0.00182974, Final residual = 4.72334e-05, No Iterations 2
GAMG:  Solving for p, Initial residual = 0.00815232, Final residual = 0.000254015, No Iterations 2
time step continuity errors : sum local = 3.92965e-05, global = 5.43287e-06, cumulative = 0.0014735
smoothSolver:  Solving for omega, Initial residual = 2.43081e-05, Final residual = 1.5272e-06, No Iterations 2
smoothSolver:  Solving for k, Initial residual = 0.000571231, Final residual = 3.24904e-05, No Iterations 2
ExecutionTime = 60.42 s  ClockTime = 60 s

forces forcesFish write:
    Sum of forces
        Total    : (0.174947 -1.28673e-05 -6.02716e-05)
        Pressure : (0.0463437 -8.98034e-06 -5.90917e-05)
        Viscous  : (0.128604 -3.88692e-06 -1.17985e-06)
    Sum of moments
        Total    : (2.9503e-08 1.95876e-05 -3.08579e-06)
        Pressure : (1.0347e-08 1.91932e-05 -2.02469e-06)
        Viscous  : (1.91559e-08 3.94331e-07 -1.0611e-06)
    writing force and moment files.

Time = 46

smoothSolver:  Solving for Ux, Initial residual = 0.000154518, Final residual = 1.02846e-05, No Iterations 2
smoothSolver:  Solving for Uy, Initial residual = 0.00156456, Final residual = 4.71808e-05, No Iterations 2
smoothSolver:  Solving for Uz, Initial residual = 0.00169445, Final residual = 4.64942e-05, No Iterations 2
GAMG:  Solving for p, Initial residual = 0.00736629, Final residual = 0.000232424, No Iterations 2
time step continuity errors : sum local = 3.58947e-05, global = 1.16687e-05, cumulative = 0.00148517
smoothSolver:  Solving for omega, Initial residual = 2.32608e-05, Final residual = 1.45944e-06, No Iterations 2
smoothSolver:  Solving for k, Initial residual = 0.000544282, Final residual = 3.13066e-05, No Iterations 2
ExecutionTime = 61.67 s  ClockTime = 61 s

forces forcesFish write:
    Sum of forces
        Total    : (0.174388 1.32956e-05 -5.79082e-05)
        Pressure : (0.0462642 1.71761e-05 -5.67068e-05)
        Viscous  : (0.128124 -3.88056e-06 -1.20139e-06)
    Sum of moments
        Total    : (2.90949e-08 1.62066e-05 2.23351e-06)
        Pressure : (1.02906e-08 1.58039e-05 3.29036e-06)
        Viscous  : (1.88043e-08 4.02646e-07 -1.05684e-06)
    writing force and moment files.

Time = 47

smoothSolver:  Solving for Ux, Initial residual = 0.00015128, Final residual = 1.00579e-05, No Iterations 2
smoothSolver:  Solving for Uy, Initial residual = 0.00147815, Final residual = 4.68025e-05, No Iterations 2
smoothSolver:  Solving for Uz, Initial residual = 0.00159819, Final residual = 4.61513e-05, No Iterations 2
GAMG:  Solving for p, Initial residual = 0.00665134, Final residual = 0.000208608, No Iterations 2
time step continuity errors : sum local = 3.21948e-05, global = 1.43926e-05, cumulative = 0.00149956
smoothSolver:  Solving for omega, Initial residual = 2.22523e-05, Final residual = 1.39418e-06, No Iterations 2
smoothSolver:  Solving for k, Initial residual = 0.000520116, Final residual = 3.01714e-05, No Iterations 2
ExecutionTime = 62.94 s  ClockTime = 63 s

forces forcesFish write:
    Sum of forces
        Total    : (0.173859 2.70074e-05 -5.18148e-05)
        Pressure : (0.0462037 3.08873e-05 -5.05804e-05)
        Viscous  : (0.127655 -3.87993e-06 -1.23436e-06)
    Sum of moments
        Total    : (2.84245e-08 1.26937e-05 4.84906e-06)
        Pressure : (9.91349e-09 1.22833e-05 5.90185e-06)
        Viscous  : (1.8511e-08 4.1045e-07 -1.05279e-06)
    writing force and moment files.

Time = 48

smoothSolver:  Solving for Ux, Initial residual = 0.000148189, Final residual = 9.83853e-06, No Iterations 2
smoothSolver:  Solving for Uy, Initial residual = 0.00140376, Final residual = 4.65871e-05, No Iterations 2
smoothSolver:  Solving for Uz, Initial residual = 0.00153039, Final residual = 4.61987e-05, No Iterations 2
GAMG:  Solving for p, Initial residual = 0.00601345, Final residual = 0.00022386, No Iterations 2
time step continuity errors : sum local = 3.457e-05, global = 7.42701e-06, cumulative = 0.00150699
smoothSolver:  Solving for omega, Initial residual = 2.12821e-05, Final residual = 1.33149e-06, No Iterations 2
smoothSolver:  Solving for k, Initial residual = 0.000498376, Final residual = 2.90742e-05, No Iterations 2
ExecutionTime = 64.18 s  ClockTime = 64 s

forces forcesFish write:
    Sum of forces
        Total    : (0.173346 2.36637e-05 -4.31246e-05)
        Pressure : (0.0461484 2.75529e-05 -4.18546e-05)
        Viscous  : (0.127198 -3.88916e-06 -1.26997e-06)
    Sum of moments
        Total    : (2.76276e-08 9.58858e-06 3.43058e-06)
        Pressure : (9.33309e-09 9.17163e-06 4.48158e-06)
        Viscous  : (1.82945e-08 4.16952e-07 -1.051e-06)
    writing force and moment files.

Time = 49

smoothSolver:  Solving for Ux, Initial residual = 0.000142841, Final residual = 9.59477e-06, No Iterations 2
smoothSolver:  Solving for Uy, Initial residual = 0.00132892, Final residual = 4.63706e-05, No Iterations 2
smoothSolver:  Solving for Uz, Initial residual = 0.00146267, Final residual = 4.63241e-05, No Iterations 2
GAMG:  Solving for p, Initial residual = 0.00546686, Final residual = 0.000208759, No Iterations 2
time step continuity errors : sum local = 3.23553e-05, global = 1.01433e-05, cumulative = 0.00151713
smoothSolver:  Solving for omega, Initial residual = 2.03556e-05, Final residual = 1.27198e-06, No Iterations 2
smoothSolver:  Solving for k, Initial residual = 0.000478474, Final residual = 2.80142e-05, No Iterations 2
ExecutionTime = 65.42 s  ClockTime = 65 s

forces forcesFish write:
    Sum of forces
        Total    : (0.172838 1.00154e-05 -3.33322e-05)
        Pressure : (0.0460869 1.39217e-05 -3.20312e-05)
        Viscous  : (0.126751 -3.90635e-06 -1.30102e-06)
    Sum of moments
        Total    : (2.68318e-08 7.65462e-06 -2.12851e-07)
        Pressure : (8.67812e-09 7.2328e-06 8.38935e-07)
        Viscous  : (1.81536e-08 4.21822e-07 -1.05179e-06)
    writing force and moment files.

Time = 50

smoothSolver:  Solving for Ux, Initial residual = 0.000136898, Final residual = 9.34232e-06, No Iterations 2
smoothSolver:  Solving for Uy, Initial residual = 0.00123773, Final residual = 4.51326e-05, No Iterations 2
smoothSolver:  Solving for Uz, Initial residual = 0.00136353, Final residual = 4.54548e-05, No Iterations 2
GAMG:  Solving for p, Initial residual = 0.00501762, Final residual = 0.000190214, No Iterations 2
time step continuity errors : sum local = 2.96053e-05, global = 1.31301e-05, cumulative = 0.00153026
smoothSolver:  Solving for omega, Initial residual = 1.9482e-05, Final residual = 1.21622e-06, No Iterations 2
smoothSolver:  Solving for k, Initial residual = 0.000460098, Final residual = 2.69916e-05, No Iterations 2
ExecutionTime = 66.63 s  ClockTime = 66 s

forces forcesFish write:
    Sum of forces
        Total    : (0.172349 -3.92994e-06 -2.59991e-05)
        Pressure : (0.0460352 -5.22545e-09 -2.46748e-05)
        Viscous  : (0.126314 -3.92471e-06 -1.32425e-06)
    Sum of moments
        Total    : (2.61145e-08 7.19357e-06 -3.58676e-06)
        Pressure : (8.05055e-09 6.76813e-06 -2.53288e-06)
        Viscous  : (1.8064e-08 4.25439e-07 -1.05387e-06)
    writing force and moment files.

Time = 51

smoothSolver:  Solving for Ux, Initial residual = 0.000131108, Final residual = 9.10413e-06, No Iterations 2
smoothSolver:  Solving for Uy, Initial residual = 0.00113996, Final residual = 4.29491e-05, No Iterations 2
smoothSolver:  Solving for Uz, Initial residual = 0.00124384, Final residual = 4.35434e-05, No Iterations 2
GAMG:  Solving for p, Initial residual = 0.00462296, Final residual = 0.000163495, No Iterations 2
time step continuity errors : sum local = 2.551e-05, global = 8.47629e-06, cumulative = 0.00153874
smoothSolver:  Solving for omega, Initial residual = 1.86802e-05, Final residual = 1.16428e-06, No Iterations 2
smoothSolver:  Solving for k, Initial residual = 0.000443062, Final residual = 2.60042e-05, No Iterations 2
ExecutionTime = 67.86 s  ClockTime = 67 s

forces forcesFish write:
    Sum of forces
        Total    : (0.171881 -1.43234e-05 -2.20138e-05)
        Pressure : (0.0459956 -1.03844e-05 -2.06758e-05)
        Viscous  : (0.125886 -3.93896e-06 -1.33798e-06)
    Sum of moments
        Total    : (2.55142e-08 7.59076e-06 -6.00038e-06)
        Pressure : (7.51917e-09 7.16247e-06 -4.94433e-06)
        Viscous  : (1.7995e-08 4.2829e-07 -1.05606e-06)
    writing force and moment files.

Time = 52

smoothSolver:  Solving for Ux, Initial residual = 0.000125842, Final residual = 8.88598e-06, No Iterations 2
smoothSolver:  Solving for Uy, Initial residual = 0.0010508, Final residual = 4.05443e-05, No Iterations 2
smoothSolver:  Solving for Uz, Initial residual = 0.00113118, Final residual = 4.12805e-05, No Iterations 2
GAMG:  Solving for p, Initial residual = 0.00425886, Final residual = 0.000154321, No Iterations 2
time step continuity errors : sum local = 2.41071e-05, global = 2.91105e-06, cumulative = 0.00154165
smoothSolver:  Solving for omega, Initial residual = 1.79415e-05, Final residual = 1.11571e-06, No Iterations 2
smoothSolver:  Solving for k, Initial residual = 0.00042717, Final residual = 2.50511e-05, No Iterations 2
ExecutionTime = 69.07 s  ClockTime = 69 s

forces forcesFish write:
    Sum of forces
        Total    : (0.171426 -2.07135e-05 -2.09461e-05)
        Pressure : (0.0459604 -1.67664e-05 -1.96035e-05)
        Viscous  : (0.125466 -3.94707e-06 -1.34258e-06)
    Sum of moments
        Total    : (2.50379e-08 8.32302e-06 -7.4547e-06)
        Pressure : (7.11645e-09 7.89228e-06 -6.39693e-06)
        Viscous  : (1.79214e-08 4.30741e-07 -1.05776e-06)
    writing force and moment files.

Time = 53

smoothSolver:  Solving for Ux, Initial residual = 0.000120999, Final residual = 8.67997e-06, No Iterations 2
smoothSolver:  Solving for Uy, Initial residual = 0.000978133, Final residual = 3.84531e-05, No Iterations 2
smoothSolver:  Solving for Uz, Initial residual = 0.00104201, Final residual = 3.91989e-05, No Iterations 2
GAMG:  Solving for p, Initial residual = 0.00391349, Final residual = 0.000145305, No Iterations 2
time step continuity errors : sum local = 2.27125e-05, global = -1.71014e-06, cumulative = 0.00153994
smoothSolver:  Solving for omega, Initial residual = 1.72505e-05, Final residual = 1.07044e-06, No Iterations 2
smoothSolver:  Solving for k, Initial residual = 0.000412209, Final residual = 2.41329e-05, No Iterations 2
ExecutionTime = 70.32 s  ClockTime = 70 s

forces forcesFish write:
    Sum of forces
        Total    : (0.170977 -2.32205e-05 -2.22293e-05)
        Pressure : (0.0459228 -1.92715e-05 -2.08889e-05)
        Viscous  : (0.125054 -3.94902e-06 -1.34033e-06)
    Sum of moments
        Total    : (2.46695e-08 9.14468e-06 -7.96036e-06)
        Pressure : (6.84254e-09 8.71173e-06 -6.90168e-06)
        Viscous  : (1.7827e-08 4.32947e-07 -1.05868e-06)
    writing force and moment files.

Time = 54

smoothSolver:  Solving for Ux, Initial residual = 0.000116739, Final residual = 8.48335e-06, No Iterations 2
smoothSolver:  Solving for Uy, Initial residual = 0.000924309, Final residual = 3.68644e-05, No Iterations 2
smoothSolver:  Solving for Uz, Initial residual = 0.000979934, Final residual = 3.75335e-05, No Iterations 2
GAMG:  Solving for p, Initial residual = 0.00358214, Final residual = 0.000130972, No Iterations 2
time step continuity errors : sum local = 2.04795e-05, global = -4.65258e-06, cumulative = 0.00153528
smoothSolver:  Solving for omega, Initial residual = 1.66057e-05, Final residual = 1.02835e-06, No Iterations 2
smoothSolver:  Solving for k, Initial residual = 0.000398026, Final residual = 2.32467e-05, No Iterations 2
ExecutionTime = 71.54 s  ClockTime = 71 s

forces forcesFish write:
    Sum of forces
        Total    : (0.17053 -2.20287e-05 -2.51623e-05)
        Pressure : (0.0458806 -1.80832e-05 -2.38279e-05)
        Viscous  : (0.124649 -3.94542e-06 -1.3344e-06)
    Sum of moments
        Total    : (2.43817e-08 9.91791e-06 -7.52477e-06)
        Pressure : (6.67492e-09 9.48283e-06 -6.46615e-06)
        Viscous  : (1.77068e-08 4.35078e-07 -1.05862e-06)
    writing force and moment files.

Time = 55

smoothSolver:  Solving for Ux, Initial residual = 0.000112938, Final residual = 8.29717e-06, No Iterations 2
smoothSolver:  Solving for Uy, Initial residual = 0.000882838, Final residual = 3.58268e-05, No Iterations 2
smoothSolver:  Solving for Uz, Initial residual = 0.000938312, Final residual = 3.63846e-05, No Iterations 2
GAMG:  Solving for p, Initial residual = 0.00328824, Final residual = 0.000122967, No Iterations 2
time step continuity errors : sum local = 1.92297e-05, global = -5.31067e-06, cumulative = 0.00152997
smoothSolver:  Solving for omega, Initial residual = 1.60148e-05, Final residual = 9.88939e-07, No Iterations 2
smoothSolver:  Solving for k, Initial residual = 0.0003845, Final residual = 2.23904e-05, No Iterations 2
ExecutionTime = 72.76 s  ClockTime = 72 s

forces forcesFish write:
    Sum of forces
        Total    : (0.170087 -1.75193e-05 -2.91309e-05)
        Pressure : (0.0458343 -1.35823e-05 -2.78031e-05)
        Viscous  : (0.124252 -3.93696e-06 -1.32783e-06)
    Sum of moments
        Total    : (2.41426e-08 1.05879e-05 -6.22272e-06)
        Pressure : (6.57939e-09 1.01508e-05 -5.16532e-06)
        Viscous  : (1.75632e-08 4.37164e-07 -1.0574e-06)
    writing force and moment files.

Time = 56

smoothSolver:  Solving for Ux, Initial residual = 0.000109238, Final residual = 8.11751e-06, No Iterations 2
smoothSolver:  Solving for Uy, Initial residual = 0.000849128, Final residual = 3.52884e-05, No Iterations 2
smoothSolver:  Solving for Uz, Initial residual = 0.000906018, Final residual = 3.57288e-05, No Iterations 2
GAMG:  Solving for p, Initial residual = 0.00303336, Final residual = 0.000123627, No Iterations 2
time step continuity errors : sum local = 1.9326e-05, global = -3.76203e-06, cumulative = 0.00152621
smoothSolver:  Solving for omega, Initial residual = 1.54748e-05, Final residual = 9.52053e-07, No Iterations 2
smoothSolver:  Solving for k, Initial residual = 0.000371502, Final residual = 2.15601e-05, No Iterations 2
ExecutionTime = 73.99 s  ClockTime = 74 s

forces forcesFish write:
    Sum of forces
        Total    : (0.169651 -1.01413e-05 -3.322e-05)
        Pressure : (0.0457889 -6.21718e-06 -3.18967e-05)
        Viscous  : (0.123863 -3.9241e-06 -1.32334e-06)
    Sum of moments
        Total    : (2.39219e-08 1.11001e-05 -4.19639e-06)
        Pressure : (6.51847e-09 1.06607e-05 -3.14152e-06)
        Viscous  : (1.74034e-08 4.39371e-07 -1.05486e-06)
    writing force and moment files.

Time = 57

smoothSolver:  Solving for Ux, Initial residual = 0.000105534, Final residual = 7.94418e-06, No Iterations 2
smoothSolver:  Solving for Uy, Initial residual = 0.000823233, Final residual = 3.51756e-05, No Iterations 2
smoothSolver:  Solving for Uz, Initial residual = 0.000879565, Final residual = 3.54598e-05, No Iterations 2
GAMG:  Solving for p, Initial residual = 0.00281683, Final residual = 0.000116347, No Iterations 2
time step continuity errors : sum local = 1.81684e-05, global = -3.73136e-06, cumulative = 0.00152248
smoothSolver:  Solving for omega, Initial residual = 1.49838e-05, Final residual = 9.17419e-07, No Iterations 2
smoothSolver:  Solving for k, Initial residual = 0.000358975, Final residual = 2.07577e-05, No Iterations 2
ExecutionTime = 75.23 s  ClockTime = 75 s

forces forcesFish write:
    Sum of forces
        Total    : (0.169228 -2.40589e-06 -3.55069e-05)
        Pressure : (0.0457484 1.50251e-06 -3.41851e-05)
        Viscous  : (0.12348 -3.90841e-06 -1.32184e-06)
    Sum of moments
        Total    : (2.36976e-08 1.12398e-05 -2.15176e-06)
        Pressure : (6.45972e-09 1.0798e-05 -1.10049e-06)
        Viscous  : (1.72379e-08 4.41789e-07 -1.05126e-06)
    writing force and moment files.

Time = 58

smoothSolver:  Solving for Ux, Initial residual = 0.000102896, Final residual = 7.7918e-06, No Iterations 2
smoothSolver:  Solving for Uy, Initial residual = 0.00079919, Final residual = 3.51478e-05, No Iterations 2
smoothSolver:  Solving for Uz, Initial residual = 0.000850139, Final residual = 3.52595e-05, No Iterations 2
GAMG:  Solving for p, Initial residual = 0.00263464, Final residual = 0.000103279, No Iterations 2
time step continuity errors : sum local = 1.6105e-05, global = -5.18521e-06, cumulative = 0.0015173
smoothSolver:  Solving for omega, Initial residual = 1.45174e-05, Final residual = 8.84999e-07, No Iterations 2
smoothSolver:  Solving for k, Initial residual = 0.00034686, Final residual = 1.9982e-05, No Iterations 2
ExecutionTime = 76.46 s  ClockTime = 76 s

forces forcesFish write:
    Sum of forces
        Total    : (0.168814 2.62953e-06 -3.51456e-05)
        Pressure : (0.0457106 6.52267e-06 -3.3823e-05)
        Viscous  : (0.123104 -3.89314e-06 -1.32266e-06)
    Sum of moments
        Total    : (2.34583e-08 1.09338e-05 -8.80189e-07)
        Pressure : (6.38114e-09 1.04896e-05 1.67239e-07)
        Viscous  : (1.70772e-08 4.44206e-07 -1.04743e-06)
    writing force and moment files.

Time = 59

smoothSolver:  Solving for Ux, Initial residual = 0.000101836, Final residual = 7.65825e-06, No Iterations 2
smoothSolver:  Solving for Uy, Initial residual = 0.000767467, Final residual = 3.48841e-05, No Iterations 2
smoothSolver:  Solving for Uz, Initial residual = 0.000810932, Final residual = 3.48691e-05, No Iterations 2
GAMG:  Solving for p, Initial residual = 0.0024605, Final residual = 0.000100088, No Iterations 2
time step continuity errors : sum local = 1.55911e-05, global = -5.14027e-06, cumulative = 0.00151216
smoothSolver:  Solving for omega, Initial residual = 1.40695e-05, Final residual = 8.54265e-07, No Iterations 2
smoothSolver:  Solving for k, Initial residual = 0.00033516, Final residual = 1.92291e-05, No Iterations 2
ExecutionTime = 77.71 s  ClockTime = 77 s

forces forcesFish write:
    Sum of forces
        Total    : (0.168407 4.16526e-06 -3.30091e-05)
        Pressure : (0.0456724 8.04571e-06 -3.16844e-05)
        Viscous  : (0.122734 -3.88045e-06 -1.32472e-06)
    Sum of moments
        Total    : (2.32019e-08 1.03795e-05 -5.47381e-07)
        Pressure : (6.27274e-09 9.93324e-06 4.96457e-07)
        Viscous  : (1.69291e-08 4.46288e-07 -1.04384e-06)
    writing force and moment files.

Time = 60

smoothSolver:  Solving for Ux, Initial residual = 0.000101214, Final residual = 7.53039e-06, No Iterations 2
smoothSolver:  Solving for Uy, Initial residual = 0.000731149, Final residual = 3.43589e-05, No Iterations 2
smoothSolver:  Solving for Uz, Initial residual = 0.000765069, Final residual = 3.42619e-05, No Iterations 2
GAMG:  Solving for p, Initial residual = 0.00230371, Final residual = 9.9388e-05, No Iterations 2
time step continuity errors : sum local = 1.54746e-05, global = -3.43804e-06, cumulative = 0.00150872
smoothSolver:  Solving for omega, Initial residual = 1.36399e-05, Final residual = 8.25215e-07, No Iterations 2
smoothSolver:  Solving for k, Initial residual = 0.00032387, Final residual = 1.85042e-05, No Iterations 2
ExecutionTime = 78.93 s  ClockTime = 79 s

forces forcesFish write:
    Sum of forces
        Total    : (0.168006 3.33704e-06 -3.02744e-05)
        Pressure : (0.0456338 7.20845e-06 -2.89472e-05)
        Viscous  : (0.122372 -3.87141e-06 -1.32722e-06)
    Sum of moments
        Total    : (2.29311e-08 9.79521e-06 -8.62259e-07)
        Pressure : (6.13442e-09 9.34725e-06 1.78654e-07)
        Viscous  : (1.67966e-08 4.47958e-07 -1.04091e-06)
    writing force and moment files.

Time = 61

smoothSolver:  Solving for Ux, Initial residual = 0.000100148, Final residual = 7.40004e-06, No Iterations 2
smoothSolver:  Solving for Uy, Initial residual = 0.000696737, Final residual = 3.3731e-05, No Iterations 2
smoothSolver:  Solving for Uz, Initial residual = 0.000721384, Final residual = 3.36021e-05, No Iterations 2
GAMG:  Solving for p, Initial residual = 0.00216017, Final residual = 9.68789e-05, No Iterations 2
time step continuity errors : sum local = 1.50818e-05, global = -1.30286e-06, cumulative = 0.00150741
smoothSolver:  Solving for omega, Initial residual = 1.3228e-05, Final residual = 7.97746e-07, No Iterations 2
smoothSolver:  Solving for k, Initial residual = 0.000312947, Final residual = 1.78057e-05, No Iterations 2
ExecutionTime = 80.22 s  ClockTime = 80 s

forces forcesFish write:
    Sum of forces
        Total    : (0.167612 1.29609e-06 -2.77197e-05)
        Pressure : (0.0455963 5.16168e-06 -2.63904e-05)
        Viscous  : (0.122015 -3.86559e-06 -1.32935e-06)
    Sum of moments
        Total    : (2.26522e-08 9.31115e-06 -1.55175e-06)
        Pressure : (5.97302e-09 8.86194e-06 -5.13077e-07)
        Viscous  : (1.66792e-08 4.49211e-07 -1.03867e-06)
    writing force and moment files.

Time = 62

smoothSolver:  Solving for Ux, Initial residual = 9.88731e-05, Final residual = 7.27129e-06, No Iterations 2
smoothSolver:  Solving for Uy, Initial residual = 0.000667423, Final residual = 3.3187e-05, No Iterations 2
smoothSolver:  Solving for Uz, Initial residual = 0.000685469, Final residual = 3.30628e-05, No Iterations 2
GAMG:  Solving for p, Initial residual = 0.00202919, Final residual = 9.45262e-05, No Iterations 2
time step continuity errors : sum local = 1.47158e-05, global = 5.55094e-07, cumulative = 0.00150797
smoothSolver:  Solving for omega, Initial residual = 1.28377e-05, Final residual = 7.71764e-07, No Iterations 2
smoothSolver:  Solving for k, Initial residual = 0.000302377, Final residual = 1.71315e-05, No Iterations 2
ExecutionTime = 81.44 s  ClockTime = 81 s

forces forcesFish write:
    Sum of forces
        Total    : (0.167225 -1.36481e-06 -2.57698e-05)
        Pressure : (0.0455598 2.49742e-06 -2.44394e-05)
        Viscous  : (0.121665 -3.86223e-06 -1.3304e-06)
    Sum of moments
        Total    : (2.23746e-08 8.98316e-06 -2.45284e-06)
        Pressure : (5.80052e-09 8.53304e-06 -1.4158e-06)
        Viscous  : (1.65741e-08 4.50113e-07 -1.03704e-06)
    writing force and moment files.

Time = 63

smoothSolver:  Solving for Ux, Initial residual = 9.74311e-05, Final residual = 7.14518e-06, No Iterations 2
smoothSolver:  Solving for Uy, Initial residual = 0.000644746, Final residual = 3.27707e-05, No Iterations 2
smoothSolver:  Solving for Uz, Initial residual = 0.000658602, Final residual = 3.26654e-05, No Iterations 2
GAMG:  Solving for p, Initial residual = 0.00191005, Final residual = 9.31796e-05, No Iterations 2
time step continuity errors : sum local = 1.45085e-05, global = 1.65095e-06, cumulative = 0.00150962
smoothSolver:  Solving for omega, Initial residual = 1.24665e-05, Final residual = 7.47422e-07, No Iterations 2
smoothSolver:  Solving for k, Initial residual = 0.000292139, Final residual = 1.64805e-05, No Iterations 2
ExecutionTime = 82.66 s  ClockTime = 82 s

forces forcesFish write:
    Sum of forces
        Total    : (0.166845 -4.23331e-06 -2.46225e-05)
        Pressure : (0.0455241 -3.72627e-07 -2.32924e-05)
        Viscous  : (0.121321 -3.86068e-06 -1.3301e-06)
    Sum of moments
        Total    : (2.21082e-08 8.82348e-06 -3.43017e-06)
        Pressure : (5.63072e-09 8.37272e-06 -2.39421e-06)
        Viscous  : (1.64775e-08 4.50759e-07 -1.03596e-06)
    writing force and moment files.

Time = 64

smoothSolver:  Solving for Ux, Initial residual = 9.57821e-05, Final residual = 7.02054e-06, No Iterations 2
[...]
    writing force and moment files.

Time = 288

smoothSolver:  Solving for Ux, Initial residual = 7.8151e-07, Final residual = 3.62257e-08, No Iterations 2
smoothSolver:  Solving for Uy, Initial residual = 1.63727e-05, Final residual = 1.05988e-06, No Iterations 2
smoothSolver:  Solving for Uz, Initial residual = 1.63167e-05, Final residual = 1.05472e-06, No Iterations 2
GAMG:  Solving for p, Initial residual = 4.03397e-05, Final residual = 2.31391e-06, No Iterations 2
time step continuity errors : sum local = 3.55246e-07, global = -2.56736e-08, cumulative = 0.00146026
smoothSolver:  Solving for omega, Initial residual = 5.66e-08, Final residual = 2.75068e-09, No Iterations 2
smoothSolver:  Solving for k, Initial residual = 1.09214e-06, Final residual = 4.99263e-08, No Iterations 2
ExecutionTime = 367.94 s  ClockTime = 368 s

forces forcesFish write:
    Sum of forces
        Total    : (0.146744 -1.52764e-05 -5.47438e-06)
        Pressure : (0.0435908 -1.1821e-05 -4.8027e-06)
        Viscous  : (0.103153 -3.45548e-06 -6.71684e-07)
    Sum of moments
        Total    : (1.82433e-08 1.91618e-06 -6.9202e-06)
        Pressure : (9.16252e-09 1.63035e-06 -6.13775e-06)
        Viscous  : (9.08079e-09 2.85824e-07 -7.8245e-07)
    writing force and moment files.

Time = 289

smoothSolver:  Solving for Ux, Initial residual = 7.5403e-07, Final residual = 3.49077e-08, No Iterations 2
smoothSolver:  Solving for Uy, Initial residual = 1.58202e-05, Final residual = 1.02372e-06, No Iterations 2
smoothSolver:  Solving for Uz, Initial residual = 1.57658e-05, Final residual = 1.01871e-06, No Iterations 2
GAMG:  Solving for p, Initial residual = 3.90807e-05, Final residual = 2.23644e-06, No Iterations 2
time step continuity errors : sum local = 3.43349e-07, global = -2.47382e-08, cumulative = 0.00146024
smoothSolver:  Solving for omega, Initial residual = 5.45331e-08, Final residual = 2.64796e-09, No Iterations 2
smoothSolver:  Solving for k, Initial residual = 1.05189e-06, Final residual = 4.79694e-08, No Iterations 2
ExecutionTime = 369.19 s  ClockTime = 369 s

forces forcesFish write:
    Sum of forces
        Total    : (0.146742 -1.52691e-05 -5.46907e-06)
        Pressure : (0.0435911 -1.18135e-05 -4.79758e-06)
        Viscous  : (0.103151 -3.4556e-06 -6.71488e-07)
    Sum of moments
        Total    : (1.82414e-08 1.91436e-06 -6.91743e-06)
        Pressure : (9.16042e-09 1.62862e-06 -6.13494e-06)
        Viscous  : (9.08098e-09 2.85744e-07 -7.82489e-07)
    writing force and moment files.

Time = 290

smoothSolver:  Solving for Ux, Initial residual = 7.27445e-07, Final residual = 3.36351e-08, No Iterations 2
smoothSolver:  Solving for Uy, Initial residual = 1.52843e-05, Final residual = 9.88676e-07, No Iterations 2
smoothSolver:  Solving for Uz, Initial residual = 1.52314e-05, Final residual = 9.83811e-07, No Iterations 2
GAMG:  Solving for p, Initial residual = 3.78547e-05, Final residual = 2.16127e-06, No Iterations 2
time step continuity errors : sum local = 3.31807e-07, global = -2.38354e-08, cumulative = 0.00146021
smoothSolver:  Solving for omega, Initial residual = 5.25377e-08, Final residual = 2.54891e-09, No Iterations 2
smoothSolver:  Solving for k, Initial residual = 1.01305e-06, Final residual = 4.60872e-08, No Iterations 2
ExecutionTime = 370.44 s  ClockTime = 370 s

forces forcesFish write:
    Sum of forces
        Total    : (0.146741 -1.52616e-05 -5.4636e-06)
        Pressure : (0.0435913 -1.18058e-05 -4.7923e-06)
        Viscous  : (0.10315 -3.45572e-06 -6.71302e-07)
    Sum of moments
        Total    : (1.82395e-08 1.91249e-06 -6.91462e-06)
        Pressure : (9.15839e-09 1.62682e-06 -6.1321e-06)
        Viscous  : (9.08115e-09 2.85668e-07 -7.82525e-07)
    writing force and moment files.

Time = 291

smoothSolver:  Solving for Ux, Initial residual = 7.01729e-07, Final residual = 3.24063e-08, No Iterations 2
smoothSolver:  Solving for Uy, Initial residual = 1.47646e-05, Final residual = 9.54712e-07, No Iterations 2
smoothSolver:  Solving for Uz, Initial residual = 1.47133e-05, Final residual = 9.49986e-07, No Iterations 2
GAMG:  Solving for p, Initial residual = 3.6661e-05, Final residual = 2.08835e-06, No Iterations 2
time step continuity errors : sum local = 3.20609e-07, global = -2.29642e-08, cumulative = 0.00146019
smoothSolver:  Solving for omega, Initial residual = 5.06114e-08, Final residual = 2.45341e-09, No Iterations 2
smoothSolver:  Solving for k, Initial residual = 9.75573e-07, Final residual = 4.42768e-08, No Iterations 2
ExecutionTime = 371.72 s  ClockTime = 371 s

forces forcesFish write:
    Sum of forces
        Total    : (0.14674 -1.5254e-05 -5.45801e-06)
        Pressure : (0.0435915 -1.17981e-05 -4.78688e-06)
        Viscous  : (0.103149 -3.45583e-06 -6.71124e-07)
    Sum of moments
        Total    : (1.82377e-08 1.91056e-06 -6.91178e-06)
        Pressure : (9.15643e-09 1.62497e-06 -6.12923e-06)
        Viscous  : (9.08129e-09 2.85597e-07 -7.82558e-07)
    writing force and moment files.

Time = 292

smoothSolver:  Solving for Ux, Initial residual = 6.76858e-07, Final residual = 3.12201e-08, No Iterations 2
smoothSolver:  Solving for Uy, Initial residual = 1.42608e-05, Final residual = 9.21803e-07, No Iterations 2
smoothSolver:  Solving for Uz, Initial residual = 1.4211e-05, Final residual = 9.17211e-07, No Iterations 2
GAMG:  Solving for p, Initial residual = 3.54991e-05, Final residual = 2.01763e-06, No Iterations 2
time step continuity errors : sum local = 3.0975e-07, global = -2.21233e-08, cumulative = 0.00146017
smoothSolver:  Solving for omega, Initial residual = 4.8752e-08, Final residual = 2.36134e-09, No Iterations 2
smoothSolver:  Solving for k, Initial residual = 9.39417e-07, Final residual = 4.25357e-08, No Iterations 2
ExecutionTime = 373 s  ClockTime = 373 s

forces forcesFish write:
    Sum of forces
        Total    : (0.146739 -1.52463e-05 -5.4523e-06)
        Pressure : (0.0435918 -1.17904e-05 -4.78135e-06)
        Viscous  : (0.103147 -3.45593e-06 -6.70955e-07)
    Sum of moments
        Total    : (1.8236e-08 1.90859e-06 -6.90893e-06)
        Pressure : (9.15454e-09 1.62307e-06 -6.12634e-06)
        Viscous  : (9.08143e-09 2.85528e-07 -7.82589e-07)
    writing force and moment files.

Time = 293

smoothSolver:  Solving for Ux, Initial residual = 6.52807e-07, Final residual = 3.00751e-08, No Iterations 2
smoothSolver:  Solving for Uy, Initial residual = 1.37725e-05, Final residual = 8.89922e-07, No Iterations 2
smoothSolver:  Solving for Uz, Initial residual = 1.37241e-05, Final residual = 8.85461e-07, No Iterations 2
GAMG:  Solving for p, Initial residual = 3.43684e-05, Final residual = 1.94906e-06, No Iterations 2
time step continuity errors : sum local = 2.9922e-07, global = -2.13118e-08, cumulative = 0.00146014
smoothSolver:  Solving for omega, Initial residual = 4.69575e-08, Final residual = 9.85124e-09, No Iterations 1
smoothSolver:  Solving for k, Initial residual = 9.09794e-07, Final residual = 4.11407e-08, No Iterations 2
ExecutionTime = 374.29 s  ClockTime = 374 s

forces forcesFish write:
    Sum of forces
        Total    : (0.146738 -1.52387e-05 -5.44651e-06)
        Pressure : (0.043592 -1.17827e-05 -4.77572e-06)
        Viscous  : (0.103146 -3.45602e-06 -6.70793e-07)
    Sum of moments
        Total    : (1.82343e-08 1.90659e-06 -6.90608e-06)
        Pressure : (9.1527e-09 1.62112e-06 -6.12347e-06)
        Viscous  : (9.08155e-09 2.85464e-07 -7.82616e-07)
    writing force and moment files.

Time = 294

smoothSolver:  Solving for Ux, Initial residual = 6.29489e-07, Final residual = 2.89673e-08, No Iterations 2
smoothSolver:  Solving for Uy, Initial residual = 1.3298e-05, Final residual = 8.59113e-07, No Iterations 2
smoothSolver:  Solving for Uz, Initial residual = 1.32509e-05, Final residual = 8.54778e-07, No Iterations 2
GAMG:  Solving for p, Initial residual = 3.32692e-05, Final residual = 1.88277e-06, No Iterations 2
time step continuity errors : sum local = 2.89041e-07, global = -2.05198e-08, cumulative = 0.00146012
smoothSolver:  Solving for omega, Initial residual = 4.71694e-08, Final residual = 9.8036e-09, No Iterations 1
smoothSolver:  Solving for k, Initial residual = 8.82614e-07, Final residual = 3.98412e-08, No Iterations 2
ExecutionTime = 375.56 s  ClockTime = 375 s

forces forcesFish write:
    Sum of forces
        Total    : (0.146737 -1.52311e-05 -5.44069e-06)
        Pressure : (0.0435922 -1.1775e-05 -4.77005e-06)
        Viscous  : (0.103145 -3.4561e-06 -6.70638e-07)
    Sum of moments
        Total    : (1.82326e-08 1.90457e-06 -6.90325e-06)
        Pressure : (9.15093e-09 1.61916e-06 -6.12061e-06)
        Viscous  : (9.08165e-09 2.85402e-07 -7.8264e-07)
    writing force and moment files.

Time = 295

smoothSolver:  Solving for Ux, Initial residual = 6.06958e-07, Final residual = 2.78993e-08, No Iterations 2
smoothSolver:  Solving for Uy, Initial residual = 1.2838e-05, Final residual = 8.29269e-07, No Iterations 2
smoothSolver:  Solving for Uz, Initial residual = 1.27922e-05, Final residual = 8.25059e-07, No Iterations 2
GAMG:  Solving for p, Initial residual = 3.21981e-05, Final residual = 1.81854e-06, No Iterations 2
time step continuity errors : sum local = 2.79179e-07, global = -1.97467e-08, cumulative = 0.0014601
smoothSolver:  Solving for omega, Initial residual = 4.67958e-08, Final residual = 9.74733e-09, No Iterations 1
smoothSolver:  Solving for k, Initial residual = 8.55575e-07, Final residual = 3.85202e-08, No Iterations 2
ExecutionTime = 376.83 s  ClockTime = 376 s

forces forcesFish write:
    Sum of forces
        Total    : (0.146736 -1.52236e-05 -5.43485e-06)
        Pressure : (0.0435924 -1.17674e-05 -4.76436e-06)
        Viscous  : (0.103144 -3.45616e-06 -6.7049e-07)
    Sum of moments
        Total    : (1.8231e-08 1.90253e-06 -6.90043e-06)
        Pressure : (9.14922e-09 1.61719e-06 -6.11777e-06)
        Viscous  : (9.08174e-09 2.85344e-07 -7.82661e-07)
    writing force and moment files.

Time = 296

smoothSolver:  Solving for Ux, Initial residual = 5.85184e-07, Final residual = 2.68694e-08, No Iterations 2
smoothSolver:  Solving for Uy, Initial residual = 1.23924e-05, Final residual = 8.00349e-07, No Iterations 2
smoothSolver:  Solving for Uz, Initial residual = 1.23479e-05, Final residual = 7.96261e-07, No Iterations 2
GAMG:  Solving for p, Initial residual = 3.1154e-05, Final residual = 1.75623e-06, No Iterations 2
time step continuity errors : sum local = 2.69612e-07, global = -1.89926e-08, cumulative = 0.00146009
smoothSolver:  Solving for omega, Initial residual = 4.6083e-08, Final residual = 9.62603e-09, No Iterations 1
smoothSolver:  Solving for k, Initial residual = 8.28714e-07, Final residual = 3.71974e-08, No Iterations 2
ExecutionTime = 378.1 s  ClockTime = 378 s

forces forcesFish write:
    Sum of forces
        Total    : (0.146735 -1.52161e-05 -5.42899e-06)
        Pressure : (0.0435926 -1.17599e-05 -4.75865e-06)
        Viscous  : (0.103143 -3.45622e-06 -6.70348e-07)
    Sum of moments
        Total    : (1.82294e-08 1.90049e-06 -6.89765e-06)
        Pressure : (9.14755e-09 1.6152e-06 -6.11498e-06)
        Viscous  : (9.08181e-09 2.85288e-07 -7.82678e-07)
    writing force and moment files.

Time = 297

smoothSolver:  Solving for Ux, Initial residual = 5.64144e-07, Final residual = 2.58759e-08, No Iterations 2
smoothSolver:  Solving for Uy, Initial residual = 1.19611e-05, Final residual = 7.72338e-07, No Iterations 2
smoothSolver:  Solving for Uz, Initial residual = 1.19178e-05, Final residual = 7.6837e-07, No Iterations 2
GAMG:  Solving for p, Initial residual = 3.01364e-05, Final residual = 1.69576e-06, No Iterations 2
time step continuity errors : sum local = 2.60327e-07, global = -1.82594e-08, cumulative = 0.00146007
smoothSolver:  Solving for omega, Initial residual = 4.51577e-08, Final residual = 9.45613e-09, No Iterations 1
smoothSolver:  Solving for k, Initial residual = 8.02066e-07, Final residual = 3.58853e-08, No Iterations 2
ExecutionTime = 379.37 s  ClockTime = 379 s

forces forcesFish write:
    Sum of forces
        Total    : (0.146734 -1.52088e-05 -5.42312e-06)
        Pressure : (0.0435928 -1.17525e-05 -4.75291e-06)
        Viscous  : (0.103142 -3.45628e-06 -6.70211e-07)
    Sum of moments
        Total    : (1.82278e-08 1.89844e-06 -6.89492e-06)
        Pressure : (9.14593e-09 1.6132e-06 -6.11223e-06)
        Viscous  : (9.08188e-09 2.85235e-07 -7.82693e-07)
    writing force and moment files.

Time = 298

smoothSolver:  Solving for Ux, Initial residual = 5.43813e-07, Final residual = 2.49173e-08, No Iterations 2
smoothSolver:  Solving for Uy, Initial residual = 1.15436e-05, Final residual = 7.45218e-07, No Iterations 2
smoothSolver:  Solving for Uz, Initial residual = 1.15016e-05, Final residual = 7.41364e-07, No Iterations 2
GAMG:  Solving for p, Initial residual = 2.91457e-05, Final residual = 1.63708e-06, No Iterations 2
time step continuity errors : sum local = 2.51316e-07, global = -1.75499e-08, cumulative = 0.00146005
smoothSolver:  Solving for omega, Initial residual = 4.41001e-08, Final residual = 9.25484e-09, No Iterations 1
smoothSolver:  Solving for k, Initial residual = 7.75665e-07, Final residual = 3.45909e-08, No Iterations 2
ExecutionTime = 380.61 s  ClockTime = 380 s

forces forcesFish write:
    Sum of forces
        Total    : (0.146734 -1.52017e-05 -5.41724e-06)
        Pressure : (0.0435929 -1.17453e-05 -4.74716e-06)
        Viscous  : (0.103141 -3.45632e-06 -6.7008e-07)
    Sum of moments
        Total    : (1.82263e-08 1.89638e-06 -6.89226e-06)
        Pressure : (9.14437e-09 1.6112e-06 -6.10955e-06)
        Viscous  : (9.08193e-09 2.85184e-07 -7.82706e-07)
    writing force and moment files.

Time = 299

smoothSolver:  Solving for Ux, Initial residual = 5.2417e-07, Final residual = 2.39925e-08, No Iterations 2
smoothSolver:  Solving for Uy, Initial residual = 1.11395e-05, Final residual = 7.18963e-07, No Iterations 2
smoothSolver:  Solving for Uz, Initial residual = 1.10988e-05, Final residual = 7.15222e-07, No Iterations 2
GAMG:  Solving for p, Initial residual = 2.81826e-05, Final residual = 1.58015e-06, No Iterations 2
time step continuity errors : sum local = 2.42576e-07, global = -1.68669e-08, cumulative = 0.00146003
smoothSolver:  Solving for omega, Initial residual = 4.29622e-08, Final residual = 9.03376e-09, No Iterations 1
smoothSolver:  Solving for k, Initial residual = 7.49535e-07, Final residual = 3.3318e-08, No Iterations 2
ExecutionTime = 381.84 s  ClockTime = 381 s

forces forcesFish write:
    Sum of forces
        Total    : (0.146733 -1.51947e-05 -5.41136e-06)
        Pressure : (0.0435931 -1.17384e-05 -4.74141e-06)
        Viscous  : (0.10314 -3.45636e-06 -6.69952e-07)
    Sum of moments
        Total    : (1.82248e-08 1.89432e-06 -6.88967e-06)
        Pressure : (9.14285e-09 1.60919e-06 -6.10695e-06)
        Viscous  : (9.08197e-09 2.85135e-07 -7.82716e-07)
    writing force and moment files.

Time = 300

smoothSolver:  Solving for Ux, Initial residual = 5.05192e-07, Final residual = 2.31003e-08, No Iterations 2
smoothSolver:  Solving for Uy, Initial residual = 1.07484e-05, Final residual = 6.93553e-07, No Iterations 2
smoothSolver:  Solving for Uz, Initial residual = 1.0709e-05, Final residual = 6.89919e-07, No Iterations 2
GAMG:  Solving for p, Initial residual = 2.72478e-05, Final residual = 1.52496e-06, No Iterations 2
time step continuity errors : sum local = 2.34103e-07, global = -1.62129e-08, cumulative = 0.00146002
smoothSolver:  Solving for omega, Initial residual = 4.1779e-08, Final residual = 8.80053e-09, No Iterations 1
smoothSolver:  Solving for k, Initial residual = 7.23687e-07, Final residual = 3.20688e-08, No Iterations 2
ExecutionTime = 384.71 s  ClockTime = 384 s

forces forcesFish write:
    Sum of forces
        Total    : (0.146732 -1.5188e-05 -5.40552e-06)
        Pressure : (0.0435933 -1.17316e-05 -4.73569e-06)
        Viscous  : (0.103139 -3.45639e-06 -6.6983e-07)
    Sum of moments
        Total    : (1.82234e-08 1.89227e-06 -6.88716e-06)
        Pressure : (9.14138e-09 1.60718e-06 -6.10444e-06)
        Viscous  : (9.08201e-09 2.85088e-07 -7.82724e-07)
    writing force and moment files.

Time = 301

smoothSolver:  Solving for Ux, Initial residual = 4.86861e-07, Final residual = 2.22397e-08, No Iterations 2
smoothSolver:  Solving for Uy, Initial residual = 1.03701e-05, Final residual = 6.68965e-07, No Iterations 2
smoothSolver:  Solving for Uz, Initial residual = 1.03318e-05, Final residual = 6.65434e-07, No Iterations 2
GAMG:  Solving for p, Initial residual = 2.63412e-05, Final residual = 1.47149e-06, No Iterations 2
time step continuity errors : sum local = 2.25892e-07, global = -1.55895e-08, cumulative = 0.00146
smoothSolver:  Solving for omega, Initial residual = 4.05744e-08, Final residual = 8.56025e-09, No Iterations 1
smoothSolver:  Solving for k, Initial residual = 6.98124e-07, Final residual = 3.0845e-08, No Iterations 2
ExecutionTime = 385.97 s  ClockTime = 386 s

forces forcesFish write:
    Sum of forces
        Total    : (0.146731 -1.51815e-05 -5.39973e-06)
        Pressure : (0.0435935 -1.17251e-05 -4.73002e-06)
        Viscous  : (0.103138 -3.45641e-06 -6.69711e-07)
    Sum of moments
        Total    : (1.8222e-08 1.89024e-06 -6.88474e-06)
        Pressure : (9.13995e-09 1.60519e-06 -6.10201e-06)
        Viscous  : (9.08203e-09 2.85043e-07 -7.82729e-07)
    writing force and moment files.

Time = 302

smoothSolver:  Solving for Ux, Initial residual = 4.69158e-07, Final residual = 2.14096e-08, No Iterations 2
smoothSolver:  Solving for Uy, Initial residual = 1.00041e-05, Final residual = 6.45176e-07, No Iterations 2
smoothSolver:  Solving for Uz, Initial residual = 9.96693e-06, Final residual = 6.41746e-07, No Iterations 2
GAMG:  Solving for p, Initial residual = 2.54623e-05, Final residual = 1.4197e-06, No Iterations 2
time step continuity errors : sum local = 2.17941e-07, global = -1.49972e-08, cumulative = 0.00145999
smoothSolver:  Solving for omega, Initial residual = 3.93643e-08, Final residual = 8.31644e-09, No Iterations 1
smoothSolver:  Solving for k, Initial residual = 6.7286e-07, Final residual = 2.96482e-08, No Iterations 2
ExecutionTime = 387.28 s  ClockTime = 387 s

forces forcesFish write:
    Sum of forces
        Total    : (0.146731 -1.51753e-05 -5.39403e-06)
        Pressure : (0.0435936 -1.17188e-05 -4.72443e-06)
        Viscous  : (0.103137 -3.45643e-06 -6.69596e-07)
    Sum of moments
        Total    : (1.82206e-08 1.88823e-06 -6.88241e-06)
        Pressure : (9.13858e-09 1.60323e-06 -6.09968e-06)
        Viscous  : (9.08205e-09 2.84999e-07 -7.82733e-07)
    writing force and moment files.

Time = 303

smoothSolver:  Solving for Ux, Initial residual = 4.52064e-07, Final residual = 2.0609e-08, No Iterations 2
smoothSolver:  Solving for Uy, Initial residual = 9.6501e-06, Final residual = 6.22164e-07, No Iterations 2
smoothSolver:  Solving for Uz, Initial residual = 9.61401e-06, Final residual = 6.18831e-07, No Iterations 2
GAMG:  Solving for p, Initial residual = 2.46104e-05, Final residual = 1.36957e-06, No Iterations 2
time step continuity errors : sum local = 2.10245e-07, global = -1.44357e-08, cumulative = 0.00145997
smoothSolver:  Solving for omega, Initial residual = 3.81591e-08, Final residual = 8.07146e-09, No Iterations 1
smoothSolver:  Solving for k, Initial residual = 6.47925e-07, Final residual = 2.84797e-08, No Iterations 2
ExecutionTime = 388.54 s  ClockTime = 388 s


SIMPLE solution converged in 303 iterations

forces forcesFish write:
    Sum of forces
        Total    : (0.14673 -1.51693e-05 -5.38843e-06)
        Pressure : (0.0435938 -1.17128e-05 -4.71894e-06)
        Viscous  : (0.103136 -3.45644e-06 -6.69485e-07)
    Sum of moments
        Total    : (1.82193e-08 1.88626e-06 -6.88017e-06)
        Pressure : (9.13725e-09 1.6013e-06 -6.09744e-06)
        Viscous  : (9.08206e-09 2.84958e-07 -7.82735e-07)
    writing force and moment files.

End

