/*---------------------------------------------------------------------------*\
| =========                 |                                                 |
| \\      /  F ield         | OpenFOAM: The Open Source CFD Toolbox           |
|  \\    /   O peration     | Version:  2512                                  |
|   \\  /    A nd           | Website:  www.openfoam.com                      |
|    \\/     M anipulation  |                                                 |
\*---------------------------------------------------------------------------*/
Build  : _bd2b6720-20260127 OPENFOAM=2512 version=2512
Arch   : "LSB;label=32;scalar=64"
Exec   : simpleFoam
Date   : Mar 28 2026
Time   : 17:43:19
Host   : mathias-laptop
PID    : 10387
I/O    : uncollated
Case   : /home/mat/OpenFOAM/mat-run/speed_sweep_runs/U_0p2
nProcs : 1
trapFpe: Floating point exception trapping enabled (FOAM_SIGFPE).
memory pool : not available
fileModificationChecking : Monitoring run-time modified files using timeStampMaster (fileModificationSkew 5, maxFileModificationPolls 20)
allowSystemOperations : Allowing user-supplied system call operations

// * * * * * * * * * * * * * * * * * * * * * * * * * * * * * * * * * * * * * //
Create time

Create mesh for time = 0


SIMPLE: convergence criteria
    field p	 tolerance 0.0001
    field U	 tolerance 1e-05
    field "(k|omega)"	 tolerance 1e-05

Reading field p

Reading field U

Reading/calculating face flux field phi

Selecting incompressible transport model Newtonian
Selecting turbulence model type RAS
Selecting RAS turbulence model kOmegaSST
Selecting patchDistMethod meshWave
RAS
{
    RASModel        kOmegaSST;
    turbulence      on;
    printCoeffs     on;
    alphaK1         0.85;
    alphaK2         1;
    alphaOmega1     0.5;
    alphaOmega2     0.856;
    gamma1          0.555556;
    gamma2          0.44;
    beta1           0.075;
    beta2           0.0828;
    betaStar        0.09;
    a1              0.31;
    b1              1;
    c1              10;
    F3              false;
    decayControl    false;
    kInf            0;
    omegaInf        0;
}

No MRF models present

No finite volume options present

Starting time loop

forces forcesFish:
    rho: rhoInf
    Freestream density (rhoInf) set to 1000
    Not including porosity effects

Time = 1

smoothSolver:  Solving for Ux, Initial residual = 1, Final residual = 0.0911261, No Iterations 1
smoothSolver:  Solving for Uy, Initial residual = 1, Final residual = 0.0981273, No Iterations 1
smoothSolver:  Solving for Uz, Initial residual = 1, Final residual = 0.0236653, No Iterations 2
GAMG:  Solving for p, Initial residual = 1, Final residual = 0.0572054, No Iterations 5
time step continuity errors : sum local = 3.28438e-06, global = -3.47785e-07, cumulative = -3.47785e-07
smoothSolver:  Solving for omega, Initial residual = 0.0164916, Final residual = 0.000990738, No Iterations 1
bounding omega, min: -16.8169 max: 11487.6 average: 123.634
smoothSolver:  Solving for k, Initial residual = 1, Final residual = 0.0734529, No Iterations 1
ExecutionTime = 1.91 s  ClockTime = 2 s

forces forcesFish write:
    Sum of forces
        Total    : (0.212196 0.0287431 -4.8829e-05)
        Pressure : (0.171258 0.0286819 -4.82852e-05)
        Viscous  : (0.0409382 6.12603e-05 -5.43824e-07)
    Sum of moments
        Total    : (-3.67188e-05 0.000104965 0.0126577)
        Pressure : (-3.665e-05 0.000105217 0.0126108)
        Viscous  : (-6.88484e-08 -2.52048e-07 4.69853e-05)
    writing force and moment files.

Time = 2

smoothSolver:  Solving for Ux, Initial residual = 0.0239392, Final residual = 0.0017055, No Iterations 2
smoothSolver:  Solving for Uy, Initial residual = 0.124038, Final residual = 0.0119015, No Iterations 2
smoothSolver:  Solving for Uz, Initial residual = 0.372544, Final residual = 0.0367472, No Iterations 2
GAMG:  Solving for p, Initial residual = 0.158922, Final residual = 0.0128004, No Iterations 3
time step continuity errors : sum local = 5.67107e-06, global = -3.74432e-07, cumulative = -7.22217e-07
smoothSolver:  Solving for omega, Initial residual = 0.00756737, Final residual = 0.000555444, No Iterations 1
smoothSolver:  Solving for k, Initial residual = 0.434868, Final residual = 0.0380407, No Iterations 1
ExecutionTime = 2.54 s  ClockTime = 3 s

forces forcesFish write:
    Sum of forces
        Total    : (0.242714 0.0349556 -6.37527e-05)
        Pressure : (0.20566 0.0349364 -5.90844e-05)
        Viscous  : (0.0370542 1.91397e-05 -4.66823e-06)
    Sum of moments
        Total    : (-4.01449e-05 0.000100688 0.0149984)
        Pressure : (-4.0282e-05 0.000101875 0.0149778)
        Viscous  : (1.37129e-07 -1.18715e-06 2.06727e-05)
    writing force and moment files.

Time = 3

smoothSolver:  Solving for Ux, Initial residual = 0.00447797, Final residual = 0.000330503, No Iterations 2
smoothSolver:  Solving for Uy, Initial residual = 0.0540623, Final residual = 0.00510612, No Iterations 2
smoothSolver:  Solving for Uz, Initial residual = 0.21151, Final residual = 0.0204714, No Iterations 2
GAMG:  Solving for p, Initial residual = 0.355112, Final residual = 0.0276177, No Iterations 2
time step continuity errors : sum local = 1.04001e-05, global = -4.53379e-07, cumulative = -1.1756e-06
smoothSolver:  Solving for omega, Initial residual = 0.00455149, Final residual = 0.000388139, No Iterations 1
smoothSolver:  Solving for k, Initial residual = 0.26212, Final residual = 0.0255914, No Iterations 1
ExecutionTime = 3.11 s  ClockTime = 3 s

forces forcesFish write:
    Sum of forces
        Total    : (0.220361 0.0318412 -0.000384739)
        Pressure : (0.1859 0.0318472 -0.000376639)
        Viscous  : (0.0344611 -6.03633e-06 -8.10036e-06)
    Sum of moments
        Total    : (-3.53606e-05 0.00014663 0.0134616)
        Pressure : (-3.56706e-05 0.000148153 0.0134605)
        Viscous  : (3.10002e-07 -1.52207e-06 1.07601e-06)
    writing force and moment files.

Time = 4

smoothSolver:  Solving for Ux, Initial residual = 0.00227939, Final residual = 0.000163754, No Iterations 2
smoothSolver:  Solving for Uy, Initial residual = 0.0311887, Final residual = 0.00289752, No Iterations 2
smoothSolver:  Solving for Uz, Initial residual = 0.128406, Final residual = 0.0122232, No Iterations 2
GAMG:  Solving for p, Initial residual = 0.382376, Final residual = 0.0165039, No Iterations 3
time step continuity errors : sum local = 7.84447e-06, global = -4.8098e-07, cumulative = -1.65658e-06
smoothSolver:  Solving for omega, Initial residual = 0.00302429, Final residual = 0.000283993, No Iterations 1
smoothSolver:  Solving for k, Initial residual = 0.175383, Final residual = 0.00198041, No Iterations 2
ExecutionTime = 3.73 s  ClockTime = 4 s

forces forcesFish write:
    Sum of forces
        Total    : (0.167744 0.0228709 -0.000738799)
        Pressure : (0.135245 0.0228937 -0.00072891)
        Viscous  : (0.0324986 -2.28073e-05 -9.88854e-06)
    Sum of moments
        Total    : (-2.34209e-05 0.000184979 0.00958862)
        Pressure : (-2.38076e-05 0.0001863 0.0096004)
        Viscous  : (3.86687e-07 -1.32028e-06 -1.17795e-05)
    writing force and moment files.

Time = 5

smoothSolver:  Solving for Ux, Initial residual = 0.00131258, Final residual = 9.00843e-05, No Iterations 2
smoothSolver:  Solving for Uy, Initial residual = 0.0175393, Final residual = 0.00159036, No Iterations 2
smoothSolver:  Solving for Uz, Initial residual = 0.0747326, Final residual = 0.00695023, No Iterations 2
GAMG:  Solving for p, Initial residual = 0.145854, Final residual = 0.00739217, No Iterations 3
time step continuity errors : sum local = 9.428e-06, global = -4.2059e-07, cumulative = -2.07717e-06
smoothSolver:  Solving for omega, Initial residual = 0.00215114, Final residual = 0.000213264, No Iterations 1
smoothSolver:  Solving for k, Initial residual = 0.124446, Final residual = 0.00153151, No Iterations 2
ExecutionTime = 4.37 s  ClockTime = 5 s

forces forcesFish write:
    Sum of forces
        Total    : (0.108285 0.0124714 -0.000943491)
        Pressure : (0.0772502 0.0125069 -0.00093446)
        Viscous  : (0.0310345 -3.54148e-05 -9.0314e-06)
    Sum of moments
        Total    : (-1.054e-05 0.000196469 0.00520308)
        Pressure : (-1.09032e-05 0.000197408 0.0052213)
        Viscous  : (3.63234e-07 -9.39271e-07 -1.8221e-05)
    writing force and moment files.

Time = 6

smoothSolver:  Solving for Ux, Initial residual = 0.000805559, Final residual = 4.90614e-05, No Iterations 2
smoothSolver:  Solving for Uy, Initial residual = 0.00890878, Final residual = 0.00071622, No Iterations 2
smoothSolver:  Solving for Uz, Initial residual = 0.0367609, Final residual = 0.00302158, No Iterations 2
GAMG:  Solving for p, Initial residual = 0.0724998, Final residual = 0.00404941, No Iterations 3
time step continuity errors : sum local = 8.8045e-06, global = -2.79505e-07, cumulative = -2.35667e-06
smoothSolver:  Solving for omega, Initial residual = 0.00159906, Final residual = 1.78704e-05, No Iterations 2
smoothSolver:  Solving for k, Initial residual = 0.0925091, Final residual = 0.00122127, No Iterations 2
ExecutionTime = 5.01 s  ClockTime = 5 s

forces forcesFish write:
    Sum of forces
        Total    : (0.0561461 0.00358985 -0.000903136)
        Pressure : (0.0262355 0.00363526 -0.000897229)
        Viscous  : (0.0299106 -4.54038e-05 -5.90716e-06)
    Sum of moments
        Total    : (5.25057e-07 0.000168162 0.00143974)
        Pressure : (2.4394e-07 0.000168913 0.00145948)
        Viscous  : (2.81118e-07 -7.51169e-07 -1.974e-05)
    writing force and moment files.

Time = 7

smoothSolver:  Solving for Ux, Initial residual = 0.000599491, Final residual = 2.89944e-05, No Iterations 2
smoothSolver:  Solving for Uy, Initial residual = 0.00552406, Final residual = 0.00023195, No Iterations 2
smoothSolver:  Solving for Uz, Initial residual = 0.0232926, Final residual = 0.00101026, No Iterations 2
GAMG:  Solving for p, Initial residual = 0.0403292, Final residual = 0.00226497, No Iterations 3
time step continuity errors : sum local = 6.68143e-06, global = -7.34844e-08, cumulative = -2.43016e-06
smoothSolver:  Solving for omega, Initial residual = 0.0011883, Final residual = 1.43166e-05, No Iterations 2
smoothSolver:  Solving for k, Initial residual = 0.0720376, Final residual = 0.00102181, No Iterations 2
ExecutionTime = 5.67 s  ClockTime = 6 s

forces forcesFish write:
    Sum of forces
        Total    : (0.0195025 -0.00216818 -0.000624695)
        Pressure : (-0.00952689 -0.00211591 -0.000621886)
        Viscous  : (0.0290294 -5.22767e-05 -2.80916e-06)
    Sum of moments
        Total    : (8.13641e-06 0.000102617 -0.00106688)
        Pressure : (7.96064e-06 0.000103103 -0.00104918)
        Viscous  : (1.75761e-07 -4.86665e-07 -1.76982e-05)
    writing force and moment files.

Time = 8

smoothSolver:  Solving for Ux, Initial residual = 0.000564809, Final residual = 2.8339e-05, No Iterations 2
smoothSolver:  Solving for Uy, Initial residual = 0.00781596, Final residual = 0.000554175, No Iterations 2
smoothSolver:  Solving for Uz, Initial residual = 0.0479022, Final residual = 0.0038244, No Iterations 2
GAMG:  Solving for p, Initial residual = 0.0266627, Final residual = 0.00118244, No Iterations 3
time step continuity errors : sum local = 4.06253e-06, global = 1.20772e-07, cumulative = -2.30938e-06
smoothSolver:  Solving for omega, Initial residual = 0.000914654, Final residual = 1.16707e-05, No Iterations 2
smoothSolver:  Solving for k, Initial residual = 0.0583221, Final residual = 0.000875577, No Iterations 2
ExecutionTime = 6.34 s  ClockTime = 7 s

forces forcesFish write:
    Sum of forces
        Total    : (0.000587553 -0.00459207 -0.000212669)
        Pressure : (-0.0277348 -0.00453643 -0.000213097)
        Viscous  : (0.0283224 -5.56494e-05 4.27781e-07)
    Sum of moments
        Total    : (1.18391e-05 1.96043e-05 -0.00219378)
        Pressure : (1.17672e-05 2.01337e-05 -0.0021799)
        Viscous  : (7.19275e-08 -5.294e-07 -1.3878e-05)
    writing force and moment files.

Time = 9

smoothSolver:  Solving for Ux, Initial residual = 0.000566618, Final residual = 3.01245e-05, No Iterations 2
smoothSolver:  Solving for Uy, Initial residual = 0.0102112, Final residual = 0.00080876, No Iterations 2
smoothSolver:  Solving for Uz, Initial residual = 0.0769456, Final residual = 0.00656247, No Iterations 2
GAMG:  Solving for p, Initial residual = 0.026817, Final residual = 0.00194773, No Iterations 2
time step continuity errors : sum local = 6.88641e-06, global = 2.68932e-07, cumulative = -2.04045e-06
smoothSolver:  Solving for omega, Initial residual = 0.000722965, Final residual = 9.6577e-06, No Iterations 2
smoothSolver:  Solving for k, Initial residual = 0.0484951, Final residual = 0.000762313, No Iterations 2
ExecutionTime = 6.98 s  ClockTime = 7 s

forces forcesFish write:
    Sum of forces
        Total    : (-0.00276199 -0.0044668 9.9967e-05)
        Pressure : (-0.0304991 -0.00441248 9.77456e-05)
        Viscous  : (0.0277371 -5.43169e-05 2.22144e-06)
    Sum of moments
        Total    : (1.23192e-05 -3.99357e-05 -0.00219893)
        Pressure : (1.23143e-05 -3.94954e-05 -0.00218971)
        Viscous  : (4.89333e-09 -4.40307e-07 -9.2204e-06)
    writing force and moment files.

Time = 10

smoothSolver:  Solving for Ux, Initial residual = 0.000536421, Final residual = 2.86467e-05, No Iterations 2
smoothSolver:  Solving for Uy, Initial residual = 0.0106991, Final residual = 0.000853321, No Iterations 2
smoothSolver:  Solving for Uz, Initial residual = 0.0935501, Final residual = 0.00797274, No Iterations 2
GAMG:  Solving for p, Initial residual = 0.0334072, Final residual = 0.00261742, No Iterations 2
time step continuity errors : sum local = 8.65646e-06, global = 5.31187e-07, cumulative = -1.50927e-06
smoothSolver:  Solving for omega, Initial residual = 0.000583053, Final residual = 8.08898e-06, No Iterations 2
smoothSolver:  Solving for k, Initial residual = 0.0411902, Final residual = 0.000672555, No Iterations 2
ExecutionTime = 7.57 s  ClockTime = 8 s

forces forcesFish write:
    Sum of forces
        Total    : (0.00266547 -0.00282225 0.000488804)
        Pressure : (-0.0245644 -0.00277313 0.000484699)
        Viscous  : (0.0272298 -4.91216e-05 4.10463e-06)
    Sum of moments
        Total    : (1.10298e-05 -0.000109206 -0.00155808)
        Pressure : (1.10695e-05 -0.000108349 -0.00155311)
        Viscous  : (-3.96992e-08 -8.57355e-07 -4.97203e-06)
    writing force and moment files.

Time = 11

smoothSolver:  Solving for Ux, Initial residual = 0.000473857, Final residual = 2.44579e-05, No Iterations 2
smoothSolver:  Solving for Uy, Initial residual = 0.00959106, Final residual = 0.000742713, No Iterations 2
smoothSolver:  Solving for Uz, Initial residual = 0.0753967, Final residual = 0.00626744, No Iterations 2
GAMG:  Solving for p, Initial residual = 0.0394445, Final residual = 0.00349756, No Iterations 2
time step continuity errors : sum local = 9.92577e-06, global = 7.24556e-07, cumulative = -7.84709e-07
smoothSolver:  Solving for omega, Initial residual = 0.000477981, Final residual = 6.84527e-06, No Iterations 2
smoothSolver:  Solving for k, Initial residual = 0.0355567, Final residual = 0.000599448, No Iterations 2
ExecutionTime = 8.15 s  ClockTime = 8 s

forces forcesFish write:
    Sum of forces
        Total    : (0.0133514 -0.000467472 0.000782576)
        Pressure : (-0.0134232 -0.000426666 0.000778035)
        Viscous  : (0.0267746 -4.0806e-05 4.54048e-06)
    Sum of moments
        Total    : (8.25284e-06 -0.000154925 -0.000590615)
        Pressure : (8.29859e-06 -0.000153852 -0.000588821)
        Viscous  : (-4.57591e-08 -1.07257e-06 -1.79428e-06)
    writing force and moment files.

Time = 12

smoothSolver:  Solving for Ux, Initial residual = 0.000396464, Final residual = 1.87784e-05, No Iterations 2
smoothSolver:  Solving for Uy, Initial residual = 0.00732345, Final residual = 0.000498527, No Iterations 2
smoothSolver:  Solving for Uz, Initial residual = 0.0501393, Final residual = 0.00377597, No Iterations 2
GAMG:  Solving for p, Initial residual = 0.0448889, Final residual = 0.00192071, No Iterations 3
time step continuity errors : sum local = 4.25606e-06, global = 7.15374e-07, cumulative = -6.93356e-08
smoothSolver:  Solving for omega, Initial residual = 0.000397129, Final residual = 5.83569e-06, No Iterations 2
smoothSolver:  Solving for k, Initial residual = 0.0310804, Final residual = 0.000538527, No Iterations 2
ExecutionTime = 8.76 s  ClockTime = 9 s

forces forcesFish write:
    Sum of forces
        Total    : (0.0266644 0.00191952 0.000722147)
        Pressure : (0.000300646 0.00194852 0.000718428)
        Viscous  : (0.0263637 -2.89939e-05 3.71889e-06)
    Sum of moments
        Total    : (3.13306e-06 -0.000128252 0.000453679)
        Pressure : (3.15585e-06 -0.000127186 0.000452875)
        Viscous  : (-2.27978e-08 -1.06606e-06 8.0426e-07)
    writing force and moment files.

Time = 13

smoothSolver:  Solving for Ux, Initial residual = 0.000313165, Final residual = 1.28995e-05, No Iterations 2
smoothSolver:  Solving for Uy, Initial residual = 0.00550203, Final residual = 0.000248274, No Iterations 2
smoothSolver:  Solving for Uz, Initial residual = 0.0298224, Final residual = 0.00140107, No Iterations 2
GAMG:  Solving for p, Initial residual = 0.0532626, Final residual = 0.00227784, No Iterations 3
time step continuity errors : sum local = 3.40623e-06, global = 6.76791e-07, cumulative = 6.07455e-07
smoothSolver:  Solving for omega, Initial residual = 0.000333625, Final residual = 5.00799e-06, No Iterations 2
smoothSolver:  Solving for k, Initial residual = 0.0274663, Final residual = 0.00048725, No Iterations 2
ExecutionTime = 9.37 s  ClockTime = 10 s

forces forcesFish write:
    Sum of forces
        Total    : (0.03741 0.00348949 0.000476457)
        Pressure : (0.0114269 0.00350643 0.000474274)
        Viscous  : (0.0259831 -1.69377e-05 2.18292e-06)
    Sum of moments
        Total    : (-1.39125e-06 -6.92305e-05 0.00120703)
        Pressure : (-1.40963e-06 -6.83066e-05 0.00120472)
        Viscous  : (1.83735e-08 -9.23857e-07 2.30891e-06)
    writing force and moment files.

Time = 14

smoothSolver:  Solving for Ux, Initial residual = 0.000273819, Final residual = 1.15188e-05, No Iterations 2
smoothSolver:  Solving for Uy, Initial residual = 0.00636547, Final residual = 0.000369177, No Iterations 2
smoothSolver:  Solving for Uz, Initial residual = 0.0367261, Final residual = 0.00231981, No Iterations 2
GAMG:  Solving for p, Initial residual = 0.063775, Final residual = 0.00527226, No Iterations 2
time step continuity errors : sum local = 5.26793e-06, global = 7.20394e-07, cumulative = 1.32785e-06
smoothSolver:  Solving for omega, Initial residual = 0.000283059, Final residual = 4.32573e-06, No Iterations 2
smoothSolver:  Solving for k, Initial residual = 0.0244711, Final residual = 0.000443066, No Iterations 2
ExecutionTime = 9.96 s  ClockTime = 10 s

forces forcesFish write:
    Sum of forces
        Total    : (0.0433658 0.00409517 0.000268129)
        Pressure : (0.0177397 0.00410396 0.000267366)
        Viscous  : (0.0256261 -8.79133e-06 7.63673e-07)
    Sum of moments
        Total    : (-3.64387e-06 -1.99674e-05 0.00156344)
        Pressure : (-3.70476e-06 -1.91585e-05 0.00156139)
        Viscous  : (6.08869e-08 -8.08889e-07 2.0526e-06)
    writing force and moment files.

Time = 15

smoothSolver:  Solving for Ux, Initial residual = 0.000253562, Final residual = 1.1384e-05, No Iterations 2
smoothSolver:  Solving for Uy, Initial residual = 0.00732439, Final residual = 0.000485815, No Iterations 2
smoothSolver:  Solving for Uz, Initial residual = 0.0437046, Final residual = 0.00314679, No Iterations 2
GAMG:  Solving for p, Initial residual = 0.0712932, Final residual = 0.00415571, No Iterations 2
time step continuity errors : sum local = 3.44283e-06, global = 6.13808e-07, cumulative = 1.94166e-06
smoothSolver:  Solving for omega, Initial residual = 0.000241963, Final residual = 3.75108e-06, No Iterations 2
smoothSolver:  Solving for k, Initial residual = 0.0219838, Final residual = 0.000405195, No Iterations 2
ExecutionTime = 10.56 s  ClockTime = 11 s

forces forcesFish write:
    Sum of forces
        Total    : (0.0457464 0.00397095 -1.44748e-06)
        Pressure : (0.0204543 0.00397525 -9.83297e-07)
        Viscous  : (0.025292 -4.29266e-06 -4.64184e-07)
    Sum of moments
        Total    : (-4.89566e-06 3.71739e-05 0.00162012)
        Pressure : (-4.99536e-06 3.78293e-05 0.00161927)
        Viscous  : (9.96936e-08 -6.55444e-07 8.5197e-07)
    writing force and moment files.

Time = 16

smoothSolver:  Solving for Ux, Initial residual = 0.000234413, Final residual = 1.07508e-05, No Iterations 2
smoothSolver:  Solving for Uy, Initial residual = 0.00728132, Final residual = 0.000497064, No Iterations 2
smoothSolver:  Solving for Uz, Initial residual = 0.03951, Final residual = 0.00290746, No Iterations 2
GAMG:  Solving for p, Initial residual = 0.0695533, Final residual = 0.00442076, No Iterations 2
time step continuity errors : sum local = 3.88183e-06, global = 4.44545e-07, cumulative = 2.3862e-06
smoothSolver:  Solving for omega, Initial residual = 0.000208167, Final residual = 3.26605e-06, No Iterations 2
smoothSolver:  Solving for k, Initial residual = 0.0198566, Final residual = 0.000371729, No Iterations 2
ExecutionTime = 11.22 s  ClockTime = 11 s

forces forcesFish write:
    Sum of forces
        Total    : (0.0454222 0.00339118 -0.000270494)
        Pressure : (0.0204354 0.00339447 -0.000269277)
        Viscous  : (0.0249867 -3.2923e-06 -1.21708e-06)
    Sum of moments
        Total    : (-5.20068e-06 9.0264e-05 0.00147069)
        Pressure : (-5.32814e-06 9.08071e-05 0.00147155)
        Viscous  : (1.27457e-07 -5.43089e-07 -8.52898e-07)
    writing force and moment files.

Time = 17

smoothSolver:  Solving for Ux, Initial residual = 0.000212448, Final residual = 9.73405e-06, No Iterations 2
smoothSolver:  Solving for Uy, Initial residual = 0.00641018, Final residual = 0.000429245, No Iterations 2
smoothSolver:  Solving for Uz, Initial residual = 0.0313667, Final residual = 0.00224751, No Iterations 2
GAMG:  Solving for p, Initial residual = 0.0563883, Final residual = 0.00393648, No Iterations 2
time step continuity errors : sum local = 4.27075e-06, global = 2.16533e-07, cumulative = 2.60274e-06
smoothSolver:  Solving for omega, Initial residual = 0.000180097, Final residual = 2.85714e-06, No Iterations 2
smoothSolver:  Solving for k, Initial residual = 0.0180536, Final residual = 0.000342598, No Iterations 2
ExecutionTime = 11.86 s  ClockTime = 12 s

forces forcesFish write:
    Sum of forces
        Total    : (0.0433152 0.00257999 -0.000500122)
        Pressure : (0.0186041 0.0025852 -0.00049888)
        Viscous  : (0.0247111 -5.20994e-06 -1.24156e-06)
    Sum of moments
        Total    : (-4.64006e-06 0.000131563 0.00120111)
        Pressure : (-4.77899e-06 0.000132146 0.00120384)
        Viscous  : (1.38932e-07 -5.82211e-07 -2.73295e-06)
    writing force and moment files.

Time = 18

smoothSolver:  Solving for Ux, Initial residual = 0.000188462, Final residual = 8.54858e-06, No Iterations 2
smoothSolver:  Solving for Uy, Initial residual = 0.0050848, Final residual = 0.00031405, No Iterations 2
smoothSolver:  Solving for Uz, Initial residual = 0.0227614, Final residual = 0.00146222, No Iterations 2
GAMG:  Solving for p, Initial residual = 0.0397924, Final residual = 0.00300891, No Iterations 2
time step continuity errors : sum local = 4.22416e-06, global = -2.20261e-08, cumulative = 2.58071e-06
smoothSolver:  Solving for omega, Initial residual = 0.000156603, Final residual = 2.51192e-06, No Iterations 2
smoothSolver:  Solving for k, Initial residual = 0.0164794, Final residual = 0.000316428, No Iterations 2
ExecutionTime = 12.44 s  ClockTime = 13 s

forces forcesFish write:
    Sum of forces
        Total    : (0.0403399 0.00179621 -0.000635748)
        Pressure : (0.0158775 0.00180508 -0.000634414)
        Viscous  : (0.0244624 -8.8731e-06 -1.33364e-06)
    Sum of moments
        Total    : (-3.28824e-06 0.000151972 0.000904068)
        Pressure : (-3.43433e-06 0.000152471 0.000908537)
        Viscous  : (1.46081e-07 -4.98918e-07 -4.4692e-06)
    writing force and moment files.

Time = 19

smoothSolver:  Solving for Ux, Initial residual = 0.000163936, Final residual = 7.26094e-06, No Iterations 2
smoothSolver:  Solving for Uy, Initial residual = 0.00375889, Final residual = 0.000192227, No Iterations 2
smoothSolver:  Solving for Uz, Initial residual = 0.0157071, Final residual = 0.000748, No Iterations 2
GAMG:  Solving for p, Initial residual = 0.0270528, Final residual = 0.0021315, No Iterations 2
time step continuity errors : sum local = 3.75746e-06, global = -2.14478e-07, cumulative = 2.36623e-06
smoothSolver:  Solving for omega, Initial residual = 0.000136832, Final residual = 2.21994e-06, No Iterations 2
smoothSolver:  Solving for k, Initial residual = 0.0151245, Final residual = 0.000293348, No Iterations 2
ExecutionTime = 13.03 s  ClockTime = 13 s

forces forcesFish write:
    Sum of forces
        Total    : (0.0373309 0.00122499 -0.000655938)
        Pressure : (0.0130943 0.0012381 -0.0006551)
        Viscous  : (0.0242366 -1.31088e-05 -8.38123e-07)
    Sum of moments
        Total    : (-1.42675e-06 0.000149124 0.000652396)
        Pressure : (-1.56595e-06 0.000149721 0.0006583)
        Viscous  : (1.39205e-07 -5.97228e-07 -5.90343e-06)
    writing force and moment files.

Time = 20

smoothSolver:  Solving for Ux, Initial residual = 0.000140007, Final residual = 6.09085e-06, No Iterations 2
smoothSolver:  Solving for Uy, Initial residual = 0.00302689, Final residual = 0.000129186, No Iterations 2
smoothSolver:  Solving for Uz, Initial residual = 0.0150137, Final residual = 0.00072261, No Iterations 2
GAMG:  Solving for p, Initial residual = 0.0190311, Final residual = 0.0014992, No Iterations 2
time step continuity errors : sum local = 3.1272e-06, global = -3.84624e-07, cumulative = 1.98161e-06
smoothSolver:  Solving for omega, Initial residual = 0.000120121, Final residual = 1.97097e-06, No Iterations 2
smoothSolver:  Solving for k, Initial residual = 0.0139216, Final residual = 0.0002723, No Iterations 2
ExecutionTime = 13.63 s  ClockTime = 14 s

forces forcesFish write:
    Sum of forces
        Total    : (0.0348548 0.00094036 -0.000575752)
        Pressure : (0.0108248 0.000956987 -0.000575268)
        Viscous  : (0.0240299 -1.66274e-05 -4.84269e-07)
    Sum of moments
        Total    : (5.64006e-07 0.000127718 0.000484807)
        Pressure : (4.31194e-07 0.000128344 0.000491674)
        Viscous  : (1.32812e-07 -6.25954e-07 -6.86773e-06)
    writing force and moment files.

Time = 21

smoothSolver:  Solving for Ux, Initial residual = 0.000119933, Final residual = 5.31358e-06, No Iterations 2
smoothSolver:  Solving for Uy, Initial residual = 0.00284968, Final residual = 0.000135099, No Iterations 2
smoothSolver:  Solving for Uz, Initial residual = 0.0167744, Final residual = 0.000973675, No Iterations 2
GAMG:  Solving for p, Initial residual = 0.014718, Final residual = 0.00107221, No Iterations 2
time step continuity errors : sum local = 2.48741e-06, global = -5.25338e-07, cumulative = 1.45627e-06
smoothSolver:  Solving for omega, Initial residual = 0.000105874, Final residual = 1.75695e-06, No Iterations 2
smoothSolver:  Solving for k, Initial residual = 0.0128686, Final residual = 0.000253428, No Iterations 2
ExecutionTime = 14.24 s  ClockTime = 14 s

forces forcesFish write:
    Sum of forces
        Total    : (0.0331656 0.00091545 -0.000433177)
        Pressure : (0.00932747 0.000934175 -0.000433208)
        Viscous  : (0.0238381 -1.87256e-05 3.09697e-08)
    Sum of moments
        Total    : (2.28722e-06 9.61851e-05 0.000406548)
        Pressure : (2.16517e-06 9.69122e-05 0.000413905)
        Viscous  : (1.2205e-07 -7.27111e-07 -7.35729e-06)
    writing force and moment files.

Time = 22

smoothSolver:  Solving for Ux, Initial residual = 0.000107919, Final residual = 4.81974e-06, No Iterations 2
smoothSolver:  Solving for Uy, Initial residual = 0.00282892, Final residual = 0.000147559, No Iterations 2
smoothSolver:  Solving for Uz, Initial residual = 0.0178941, Final residual = 0.00112654, No Iterations 2
GAMG:  Solving for p, Initial residual = 0.0132748, Final residual = 0.00086181, No Iterations 2
time step continuity errors : sum local = 2.10519e-06, global = -6.30872e-07, cumulative = 8.25397e-07
smoothSolver:  Solving for omega, Initial residual = 9.36166e-05, Final residual = 1.57149e-06, No Iterations 2
smoothSolver:  Solving for k, Initial residual = 0.0119189, Final residual = 0.00023597, No Iterations 2
ExecutionTime = 14.87 s  ClockTime = 15 s

forces forcesFish write:
    Sum of forces
        Total    : (0.0322168 0.00106179 -0.000268167)
        Pressure : (0.00855972 0.00108087 -0.000268586)
        Viscous  : (0.023657 -1.90742e-05 4.18606e-07)
    Sum of moments
        Total    : (3.50047e-06 6.25098e-05 0.000398122)
        Pressure : (3.38627e-06 6.33176e-05 0.000405533)
        Viscous  : (1.14202e-07 -8.07875e-07 -7.41084e-06)
    writing force and moment files.

Time = 23

smoothSolver:  Solving for Ux, Initial residual = 0.000103309, Final residual = 4.5223e-06, No Iterations 2
smoothSolver:  Solving for Uy, Initial residual = 0.00275571, Final residual = 0.000146139, No Iterations 2
smoothSolver:  Solving for Uz, Initial residual = 0.0175965, Final residual = 0.00111726, No Iterations 2
GAMG:  Solving for p, Initial residual = 0.0134411, Final residual = 0.000832535, No Iterations 2
time step continuity errors : sum local = 2.05233e-06, global = -6.4981e-07, cumulative = 1.75588e-07
smoothSolver:  Solving for omega, Initial residual = 8.29971e-05, Final residual = 1.40906e-06, No Iterations 2
smoothSolver:  Solving for k, Initial residual = 0.0110716, Final residual = 0.000220033, No Iterations 2
ExecutionTime = 15.47 s  ClockTime = 16 s

forces forcesFish write:
    Sum of forces
        Total    : (0.0318054 0.00129409 -0.000105059)
        Pressure : (0.00832148 0.00131173 -0.00010569)
        Viscous  : (0.0234839 -1.76391e-05 6.31091e-07)
    Sum of moments
        Total    : (4.13403e-06 3.11946e-05 0.000433665)
        Pressure : (4.0252e-06 3.20478e-05 0.000440742)
        Viscous  : (1.08828e-07 -8.5321e-07 -7.07727e-06)
    writing force and moment files.

Time = 24

smoothSolver:  Solving for Ux, Initial residual = 0.000101049, Final residual = 4.24923e-06, No Iterations 2
smoothSolver:  Solving for Uy, Initial residual = 0.00259424, Final residual = 0.000128721, No Iterations 2
smoothSolver:  Solving for Uz, Initial residual = 0.0158542, Final residual = 0.000946293, No Iterations 2
GAMG:  Solving for p, Initial residual = 0.0134355, Final residual = 0.000841694, No Iterations 2
time step continuity errors : sum local = 2.0262e-06, global = -6.03624e-07, cumulative = -4.28036e-07
smoothSolver:  Solving for omega, Initial residual = 7.37433e-05, Final residual = 1.26506e-06, No Iterations 2
smoothSolver:  Solving for k, Initial residual = 0.0102978, Final residual = 0.000205148, No Iterations 2
ExecutionTime = 16.07 s  ClockTime = 16 s

forces forcesFish write:
    Sum of forces
        Total    : (0.0317369 0.00152876 2.7199e-05)
        Pressure : (0.00842072 0.00154341 2.66007e-05)
        Viscous  : (0.0233162 -1.46437e-05 5.98291e-07)
    Sum of moments
        Total    : (4.1339e-06 7.5596e-06 0.000487353)
        Pressure : (4.02613e-06 8.39385e-06 0.0004938)
        Viscous  : (1.07774e-07 -8.34249e-07 -6.44726e-06)
    writing force and moment files.

Time = 25

smoothSolver:  Solving for Ux, Initial residual = 9.81669e-05, Final residual = 3.95871e-06, No Iterations 2
smoothSolver:  Solving for Uy, Initial residual = 0.00236079, Final residual = 0.000103127, No Iterations 2
smoothSolver:  Solving for Uz, Initial residual = 0.0130194, Final residual = 0.000670898, No Iterations 2
GAMG:  Solving for p, Initial residual = 0.0130566, Final residual = 0.000849969, No Iterations 2
time step continuity errors : sum local = 1.94851e-06, global = -5.20518e-07, cumulative = -9.48554e-07
smoothSolver:  Solving for omega, Initial residual = 6.5638e-05, Final residual = 1.13694e-06, No Iterations 2
smoothSolver:  Solving for k, Initial residual = 0.00959458, Final residual = 0.000191348, No Iterations 2
ExecutionTime = 16.72 s  ClockTime = 17 s

forces forcesFish write:
    Sum of forces
        Total    : (0.0318114 0.00169673 0.000105907)
        Pressure : (0.00865808 0.0017072 0.000105417)
        Viscous  : (0.0231533 -1.04775e-05 4.89629e-07)
    Sum of moments
        Total    : (3.56602e-06 -4.74797e-06 0.000535897)
        Pressure : (3.45699e-06 -3.93844e-06 0.00054151)
        Viscous  : (1.09036e-07 -8.09528e-07 -5.6133e-06)
    writing force and moment files.

Time = 26

smoothSolver:  Solving for Ux, Initial residual = 9.40919e-05, Final residual = 3.67753e-06, No Iterations 2
smoothSolver:  Solving for Uy, Initial residual = 0.00219173, Final residual = 9.01743e-05, No Iterations 2
smoothSolver:  Solving for Uz, Initial residual = 0.0102802, Final residual = 0.000435982, No Iterations 2
GAMG:  Solving for p, Initial residual = 0.0124147, Final residual = 0.000792294, No Iterations 2
time step continuity errors : sum local = 1.70663e-06, global = -4.14047e-07, cumulative = -1.3626e-06
smoothSolver:  Solving for omega, Initial residual = 5.84995e-05, Final residual = 1.02234e-06, No Iterations 2
smoothSolver:  Solving for k, Initial residual = 0.0089471, Final residual = 0.000178408, No Iterations 2
ExecutionTime = 17.33 s  ClockTime = 18 s

forces forcesFish write:
    Sum of forces
        Total    : (0.0318636 0.00176653 0.000125652)
        Pressure : (0.00886857 0.00177211 0.000125319)
        Viscous  : (0.022995 -5.57886e-06 3.33381e-07)
    Sum of moments
        Total    : (2.63685e-06 -5.50863e-06 0.000564808)
        Pressure : (2.52524e-06 -4.73035e-06 0.000569457)
        Viscous  : (1.11604e-07 -7.78273e-07 -4.64917e-06)
    writing force and moment files.

Time = 27

smoothSolver:  Solving for Ux, Initial residual = 8.90015e-05, Final residual = 3.41974e-06, No Iterations 2
smoothSolver:  Solving for Uy, Initial residual = 0.00215889, Final residual = 9.6419e-05, No Iterations 2
smoothSolver:  Solving for Uz, Initial residual = 0.00889779, Final residual = 0.000373243, No Iterations 2
GAMG:  Solving for p, Initial residual = 0.0115432, Final residual = 0.000684796, No Iterations 2
time step continuity errors : sum local = 1.38658e-06, global = -2.99196e-07, cumulative = -1.6618e-06
smoothSolver:  Solving for omega, Initial residual = 5.21817e-05, Final residual = 9.19252e-07, No Iterations 2
smoothSolver:  Solving for k, Initial residual = 0.00834901, Final residual = 0.000166258, No Iterations 2
ExecutionTime = 17.91 s  ClockTime = 18 s

forces forcesFish write:
    Sum of forces
        Total    : (0.0317966 0.00174517 9.7074e-05)
        Pressure : (0.0089555 0.0017455 9.6918e-05)
        Viscous  : (0.0228411 -3.31755e-07 1.56008e-07)
    Sum of moments
        Total    : (1.61906e-06 2.59962e-06 0.000570035)
        Pressure : (1.50414e-06 3.33769e-06 0.000573652)
        Viscous  : (1.1492e-07 -7.38069e-07 -3.61775e-06)
    writing force and moment files.

Time = 28

smoothSolver:  Solving for Ux, Initial residual = 8.31697e-05, Final residual = 3.19492e-06, No Iterations 2
smoothSolver:  Solving for Uy, Initial residual = 0.00217915, Final residual = 0.000106672, No Iterations 2
smoothSolver:  Solving for Uz, Initial residual = 0.00849193, Final residual = 0.000409426, No Iterations 2
GAMG:  Solving for p, Initial residual = 0.0106721, Final residual = 0.000602804, No Iterations 2
time step continuity errors : sum local = 1.16244e-06, global = -1.7561e-07, cumulative = -1.83741e-06
smoothSolver:  Solving for omega, Initial residual = 4.65616e-05, Final residual = 8.26058e-07, No Iterations 2
smoothSolver:  Solving for k, Initial residual = 0.00779585, Final residual = 0.000154857, No Iterations 2
ExecutionTime = 18.52 s  ClockTime = 19 s

forces forcesFish write:
    Sum of forces
        Total    : (0.0315888 0.00166735 4.04111e-05)
        Pressure : (0.00889703 0.00166239 4.04187e-05)
        Viscous  : (0.0226918 4.96232e-06 -7.58321e-09)
    Sum of moments
        Total    : (7.55367e-07 1.53365e-05 0.000556384)
        Pressure : (6.36847e-07 1.60301e-05 0.000558957)
        Viscous  : (1.18519e-07 -6.93594e-07 -2.57302e-06)
    writing force and moment files.

Time = 29

smoothSolver:  Solving for Ux, Initial residual = 7.74541e-05, Final residual = 2.99902e-06, No Iterations 2
smoothSolver:  Solving for Uy, Initial residual = 0.00221724, Final residual = 0.000111454, No Iterations 2
smoothSolver:  Solving for Uz, Initial residual = 0.00816154, Final residual = 0.000412519, No Iterations 2
GAMG:  Solving for p, Initial residual = 0.00999573, Final residual = 0.000661204, No Iterations 2
time step continuity errors : sum local = 1.23875e-06, global = -3.96347e-08, cumulative = -1.87704e-06
smoothSolver:  Solving for omega, Initial residual = 4.15325e-05, Final residual = 7.41285e-07, No Iterations 2
smoothSolver:  Solving for k, Initial residual = 0.0072779, Final residual = 0.000144046, No Iterations 2
ExecutionTime = 19.12 s  ClockTime = 19 s

forces forcesFish write:
    Sum of forces
        Total    : (0.0312739 0.00156642 -2.89042e-05)
        Pressure : (0.00872647 0.00155627 -2.87464e-05)
        Viscous  : (0.0225474 1.01445e-05 -1.57836e-07)
    Sum of moments
        Total    : (1.28181e-07 2.98169e-05 0.000531059)
        Pressure : (6.62235e-09 3.04641e-05 0.000532598)
        Viscous  : (1.21559e-07 -6.47214e-07 -1.5394e-06)
    writing force and moment files.

Time = 30

smoothSolver:  Solving for Ux, Initial residual = 7.28548e-05, Final residual = 2.83912e-06, No Iterations 2
smoothSolver:  Solving for Uy, Initial residual = 0.00224621, Final residual = 0.000109896, No Iterations 2
smoothSolver:  Solving for Uz, Initial residual = 0.007623, Final residual = 0.000366977, No Iterations 2
GAMG:  Solving for p, Initial residual = 0.00933375, Final residual = 0.000669977, No Iterations 2
time step continuity errors : sum local = 1.24056e-06, global = 8.75486e-08, cumulative = -1.78949e-06
smoothSolver:  Solving for omega, Initial residual = 3.70258e-05, Final residual = 6.64823e-07, No Iterations 2
smoothSolver:  Solving for k, Initial residual = 0.00679704, Final residual = 0.00013389, No Iterations 2
ExecutionTime = 19.77 s  ClockTime = 20 s

forces forcesFish write:
    Sum of forces
        Total    : (0.0308885 0.00145629 -0.000104663)
        Pressure : (0.00848051 0.00144118 -0.000104401)
        Viscous  : (0.022408 1.51113e-05 -2.62568e-07)
    Sum of moments
        Total    : (-2.61346e-07 4.49381e-05 0.000497979)
        Pressure : (-3.84966e-07 4.55436e-05 0.000498506)
        Viscous  : (1.2362e-07 -6.05451e-07 -5.27236e-07)
    writing force and moment files.

Time = 31

smoothSolver:  Solving for Ux, Initial residual = 6.90002e-05, Final residual = 2.70629e-06, No Iterations 2
smoothSolver:  Solving for Uy, Initial residual = 0.00224405, Final residual = 0.000102868, No Iterations 2
smoothSolver:  Solving for Uz, Initial residual = 0.00693605, Final residual = 0.000290268, No Iterations 2
GAMG:  Solving for p, Initial residual = 0.00868362, Final residual = 0.000641643, No Iterations 2
time step continuity errors : sum local = 1.19062e-06, global = 1.71142e-07, cumulative = -1.61835e-06
smoothSolver:  Solving for omega, Initial residual = 3.29862e-05, Final residual = 5.96142e-07, No Iterations 2
smoothSolver:  Solving for k, Initial residual = 0.00634345, Final residual = 0.000124212, No Iterations 2
ExecutionTime = 20.4 s  ClockTime = 21 s

forces forcesFish write:
    Sum of forces
        Total    : (0.0304737 0.0013582 -0.0001743)
        Pressure : (0.00820033 0.00133836 -0.000173973)
        Viscous  : (0.0222734 1.98409e-05 -3.26617e-07)
    Sum of moments
        Total    : (-3.55911e-07 5.8357e-05 0.000463379)
        Pressure : (-4.80779e-07 5.89292e-05 0.000462913)
        Viscous  : (1.24868e-07 -5.72137e-07 4.65673e-07)
    writing force and moment files.

Time = 32

smoothSolver:  Solving for Ux, Initial residual = 6.5197e-05, Final residual = 2.56166e-06, No Iterations 2
smoothSolver:  Solving for Uy, Initial residual = 0.00220223, Final residual = 9.23017e-05, No Iterations 2
smoothSolver:  Solving for Uz, Initial residual = 0.00634306, Final residual = 0.000228248, No Iterations 2
GAMG:  Solving for p, Initial residual = 0.00799811, Final residual = 0.000620749, No Iterations 2
time step continuity errors : sum local = 1.16737e-06, global = 2.24886e-07, cumulative = -1.39347e-06
smoothSolver:  Solving for omega, Initial residual = 2.93556e-05, Final residual = 5.34191e-07, No Iterations 2
smoothSolver:  Solving for k, Initial residual = 0.00591893, Final residual = 0.000115062, No Iterations 2
ExecutionTime = 21.01 s  ClockTime = 21 s

forces forcesFish write:
    Sum of forces
        Total    : (0.0300734 0.00129046 -0.000224616)
        Pressure : (0.00792977 0.00126608 -0.000224254)
        Viscous  : (0.0221436 2.43774e-05 -3.62443e-07)
    Sum of moments
        Total    : (-1.59156e-07 6.7696e-05 0.000433529)
        Pressure : (-2.84497e-07 6.8243e-05 0.000432083)
        Viscous  : (1.25341e-07 -5.47003e-07 1.4456e-06)
    writing force and moment files.

Time = 33

smoothSolver:  Solving for Ux, Initial residual = 6.09447e-05, Final residual = 2.39672e-06, No Iterations 2
smoothSolver:  Solving for Uy, Initial residual = 0.00213744, Final residual = 8.29693e-05, No Iterations 2
smoothSolver:  Solving for Uz, Initial residual = 0.00601527, Final residual = 0.000212907, No Iterations 2
GAMG:  Solving for p, Initial residual = 0.00730935, Final residual = 0.000577137, No Iterations 2
time step continuity errors : sum local = 1.10637e-06, global = 2.57117e-07, cumulative = -1.13635e-06
smoothSolver:  Solving for omega, Initial residual = 2.60852e-05, Final residual = 4.78157e-07, No Iterations 2
smoothSolver:  Solving for k, Initial residual = 0.005518, Final residual = 0.000106343, No Iterations 2
ExecutionTime = 21.63 s  ClockTime = 22 s

forces forcesFish write:
    Sum of forces
        Total    : (0.0297184 0.00125837 -0.000248924)
        Pressure : (0.00770019 0.0012296 -0.000248541)
        Viscous  : (0.0220182 2.87659e-05 -3.82401e-07)
    Sum of moments
        Total    : (2.43186e-07 7.18101e-05 0.000411795)
        Pressure : (1.17876e-07 7.23377e-05 0.000409372)
        Viscous  : (1.2531e-07 -5.2764e-07 2.4235e-06)
    writing force and moment files.

Time = 34

smoothSolver:  Solving for Ux, Initial residual = 5.5824e-05, Final residual = 2.22026e-06, No Iterations 2
smoothSolver:  Solving for Uy, Initial residual = 0.00208595, Final residual = 7.85284e-05, No Iterations 2
smoothSolver:  Solving for Uz, Initial residual = 0.00573041, Final residual = 0.000221118, No Iterations 2
GAMG:  Solving for p, Initial residual = 0.00668634, Final residual = 0.000513435, No Iterations 2
time step continuity errors : sum local = 1.00308e-06, global = 2.70612e-07, cumulative = -8.65736e-07
smoothSolver:  Solving for omega, Initial residual = 2.31353e-05, Final residual = 4.27411e-07, No Iterations 2
smoothSolver:  Solving for k, Initial residual = 0.00513866, Final residual = 9.80269e-05, No Iterations 2
ExecutionTime = 22.22 s  ClockTime = 22 s

forces forcesFish write:
    Sum of forces
        Total    : (0.0294219 0.00125538 -0.000247894)
        Pressure : (0.007525 0.00122232 -0.000247504)
        Viscous  : (0.0218969 3.30575e-05 -3.90521e-07)
    Sum of moments
        Total    : (7.26388e-07 7.09052e-05 0.000398377)
        Pressure : (6.01508e-07 7.14205e-05 0.000394975)
        Viscous  : (1.2488e-07 -5.15294e-07 3.40163e-06)
    writing force and moment files.

Time = 35

smoothSolver:  Solving for Ux, Initial residual = 5.03846e-05, Final residual = 2.0428e-06, No Iterations 2
smoothSolver:  Solving for Uy, Initial residual = 0.00207982, Final residual = 7.97361e-05, No Iterations 2
smoothSolver:  Solving for Uz, Initial residual = 0.00532171, Final residual = 0.000223789, No Iterations 2
GAMG:  Solving for p, Initial residual = 0.00618466, Final residual = 0.000447924, No Iterations 2
time step continuity errors : sum local = 8.88098e-07, global = 2.68319e-07, cumulative = -5.97417e-07
smoothSolver:  Solving for omega, Initial residual = 2.04718e-05, Final residual = 3.81467e-07, No Iterations 2
smoothSolver:  Solving for k, Initial residual = 0.00477931, Final residual = 9.00931e-05, No Iterations 2
ExecutionTime = 22.81 s  ClockTime = 23 s

forces forcesFish write:
    Sum of forces
        Total    : (0.0291809 0.00126868 -0.000227141)
        Pressure : (0.0074017 0.00123139 -0.00022675)
        Viscous  : (0.0217792 3.72914e-05 -3.91289e-07)
    Sum of moments
        Total    : (1.17654e-06 6.60955e-05 0.000391301)
        Pressure : (1.05234e-06 6.66056e-05 0.000386919)
        Viscous  : (1.24193e-07 -5.10056e-07 4.38157e-06)
    writing force and moment files.

Time = 36

smoothSolver:  Solving for Ux, Initial residual = 4.55001e-05, Final residual = 1.87616e-06, No Iterations 2
smoothSolver:  Solving for Uy, Initial residual = 0.00214559, Final residual = 8.51407e-05, No Iterations 2
smoothSolver:  Solving for Uz, Initial residual = 0.00484124, Final residual = 0.000211921, No Iterations 2
GAMG:  Solving for p, Initial residual = 0.00579777, Final residual = 0.000394295, No Iterations 2
time step continuity errors : sum local = 7.88844e-07, global = 2.50496e-07, cumulative = -3.46922e-07
smoothSolver:  Solving for omega, Initial residual = 1.80668e-05, Final residual = 3.39912e-07, No Iterations 2
smoothSolver:  Solving for k, Initial residual = 0.00443577, Final residual = 8.24771e-05, No Iterations 2
ExecutionTime = 23.44 s  ClockTime = 24 s

forces forcesFish write:
    Sum of forces
        Total    : (0.0289836 0.00128506 -0.00019385)
        Pressure : (0.00731864 0.00124358 -0.000193455)
        Viscous  : (0.021665 4.14821e-05 -3.94581e-07)
    Sum of moments
        Total    : (1.51665e-06 5.87886e-05 0.000387785)
        Pressure : (1.39313e-06 5.9297e-05 0.000382428)
        Viscous  : (1.23515e-07 -5.08405e-07 5.35638e-06)
    writing force and moment files.

Time = 37

smoothSolver:  Solving for Ux, Initial residual = 4.19743e-05, Final residual = 1.73242e-06, No Iterations 2
smoothSolver:  Solving for Uy, Initial residual = 0.00231532, Final residual = 9.29392e-05, No Iterations 2
smoothSolver:  Solving for Uz, Initial residual = 0.0043509, Final residual = 0.000187361, No Iterations 2
GAMG:  Solving for p, Initial residual = 0.0054478, Final residual = 0.000344297, No Iterations 2
time step continuity errors : sum local = 6.91271e-07, global = 2.21211e-07, cumulative = -1.2571e-07
smoothSolver:  Solving for omega, Initial residual = 1.5895e-05, Final residual = 3.0234e-07, No Iterations 2
smoothSolver:  Solving for k, Initial residual = 0.00410866, Final residual = 7.52085e-05, No Iterations 2
ExecutionTime = 24.06 s  ClockTime = 24 s

forces forcesFish write:
    Sum of forces
        Total    : (0.0288164 0.00129401 -0.000155242)
        Pressure : (0.00726238 0.0012484 -0.000154834)
        Viscous  : (0.021554 4.56113e-05 -4.07626e-07)
    Sum of moments
        Total    : (1.70338e-06 5.04195e-05 0.000385233)
        Pressure : (1.58046e-06 5.0926e-05 0.000378918)
        Viscous  : (1.22916e-07 -5.06491e-07 6.31486e-06)
    writing force and moment files.

Time = 38

smoothSolver:  Solving for Ux, Initial residual = 3.99698e-05, Final residual = 1.6192e-06, No Iterations 2
smoothSolver:  Solving for Uy, Initial residual = 0.00261425, Final residual = 0.000103739, No Iterations 2
smoothSolver:  Solving for Uz, Initial residual = 0.00389798, Final residual = 0.000156258, No Iterations 2
GAMG:  Solving for p, Initial residual = 0.00513017, Final residual = 0.000300352, No Iterations 2
time step continuity errors : sum local = 6.02626e-07, global = 1.85945e-07, cumulative = 6.02351e-08
smoothSolver:  Solving for omega, Initial residual = 1.39348e-05, Final residual = 2.68447e-07, No Iterations 2
smoothSolver:  Solving for k, Initial residual = 0.00379313, Final residual = 6.82206e-05, No Iterations 2
ExecutionTime = 24.65 s  ClockTime = 25 s

forces forcesFish write:
    Sum of forces
        Total    : (0.0286671 0.00128885 -0.000118298)
        Pressure : (0.00722122 0.00123921 -0.000117875)
        Viscous  : (0.0214459 4.96421e-05 -4.22938e-07)
    Sum of moments
        Total    : (1.72626e-06 4.24051e-05 0.000381689)
        Pressure : (1.60384e-06 4.29106e-05 0.000374447)
        Viscous  : (1.22416e-07 -5.05503e-07 7.24206e-06)
    writing force and moment files.

Time = 39

smoothSolver:  Solving for Ux, Initial residual = 3.84527e-05, Final residual = 1.5246e-06, No Iterations 2
smoothSolver:  Solving for Uy, Initial residual = 0.00304856, Final residual = 0.000119434, No Iterations 2
smoothSolver:  Solving for Uz, Initial residual = 0.00353067, Final residual = 0.000128067, No Iterations 2
GAMG:  Solving for p, Initial residual = 0.00485111, Final residual = 0.000286238, No Iterations 2
time step continuity errors : sum local = 5.72425e-07, global = 1.48656e-07, cumulative = 2.08891e-07
smoothSolver:  Solving for omega, Initial residual = 1.21695e-05, Final residual = 2.3801e-07, No Iterations 2
smoothSolver:  Solving for k, Initial residual = 0.00349071, Final residual = 6.15678e-05, No Iterations 2
ExecutionTime = 25.27 s  ClockTime = 25 s

forces forcesFish write:
    Sum of forces
        Total    : (0.0285269 0.00126739 -8.86633e-05)
        Pressure : (0.0071864 0.00121386 -8.82279e-05)
        Viscous  : (0.0213405 5.35264e-05 -4.35394e-07)
    Sum of moments
        Total    : (1.60933e-06 3.59218e-05 0.000376066)
        Pressure : (1.48725e-06 3.64278e-05 0.000367942)
        Viscous  : (1.22076e-07 -5.06026e-07 8.12426e-06)
    writing force and moment files.

Time = 40

smoothSolver:  Solving for Ux, Initial residual = 3.66067e-05, Final residual = 1.43433e-06, No Iterations 2
smoothSolver:  Solving for Uy, Initial residual = 0.00359483, Final residual = 0.000140647, No Iterations 2
smoothSolver:  Solving for Uz, Initial residual = 0.00325645, Final residual = 0.000107965, No Iterations 2
GAMG:  Solving for p, Initial residual = 0.00463145, Final residual = 0.000292556, No Iterations 2
time step continuity errors : sum local = 5.82719e-07, global = 1.11566e-07, cumulative = 3.20457e-07
smoothSolver:  Solving for omega, Initial residual = 1.05859e-05, Final residual = 2.1084e-07, No Iterations 2
smoothSolver:  Solving for k, Initial residual = 0.00319798, Final residual = 5.5218e-05, No Iterations 2
ExecutionTime = 25.9 s  ClockTime = 26 s

forces forcesFish write:
    Sum of forces
        Total    : (0.0283901 0.00123157 -6.95398e-05)
        Pressure : (0.00715243 0.00117435 -6.90895e-05)
        Viscous  : (0.0212377 5.72179e-05 -4.5028e-07)
    Sum of moments
        Total    : (1.40162e-06 3.16653e-05 0.00036817)
        Pressure : (1.27979e-06 3.21697e-05 0.000359221)
        Viscous  : (1.21823e-07 -5.04401e-07 8.9493e-06)
    writing force and moment files.

Time = 41

smoothSolver:  Solving for Ux, Initial residual = 3.42015e-05, Final residual = 1.3442e-06, No Iterations 2
smoothSolver:  Solving for Uy, Initial residual = 0.00416151, Final residual = 0.000162396, No Iterations 2
smoothSolver:  Solving for Uz, Initial residual = 0.00309734, Final residual = 9.89734e-05, No Iterations 2
GAMG:  Solving for p, Initial residual = 0.00445344, Final residual = 0.000295, No Iterations 2
time step continuity errors : sum local = 5.85762e-07, global = 7.64845e-08, cumulative = 3.96942e-07
smoothSolver:  Solving for omega, Initial residual = 9.17045e-06, Final residual = 1.86722e-07, No Iterations 2
smoothSolver:  Solving for k, Initial residual = 0.00291628, Final residual = 4.92243e-05, No Iterations 2
ExecutionTime = 26.54 s  ClockTime = 27 s

forces forcesFish write:
    Sum of forces
        Total    : (0.0282541 0.00118596 -6.14084e-05)
        Pressure : (0.00711675 0.00112528 -6.09409e-05)
        Viscous  : (0.0211374 6.06832e-05 -4.67538e-07)
    Sum of moments
        Total    : (1.15996e-06 2.97687e-05 0.000358456)
        Pressure : (1.0383e-06 3.02685e-05 0.000348745)
        Viscous  : (1.2166e-07 -4.99815e-07 9.71052e-06)
    writing force and moment files.

Time = 42

smoothSolver:  Solving for Ux, Initial residual = 3.13796e-05, Final residual = 1.25628e-06, No Iterations 2
smoothSolver:  Solving for Uy, Initial residual = 0.00386841, Final residual = 0.000148621, No Iterations 2
smoothSolver:  Solving for Uz, Initial residual = 0.00304472, Final residual = 9.93569e-05, No Iterations 2
GAMG:  Solving for p, Initial residual = 0.00428098, Final residual = 0.000287148, No Iterations 2
time step continuity errors : sum local = 5.69496e-07, global = 4.52702e-08, cumulative = 4.42212e-07
smoothSolver:  Solving for omega, Initial residual = 7.91262e-06, Final residual = 1.65456e-07, No Iterations 2
smoothSolver:  Solving for k, Initial residual = 0.00264382, Final residual = 4.35828e-05, No Iterations 2
ExecutionTime = 27.17 s  ClockTime = 27 s

forces forcesFish write:
    Sum of forces
        Total    : (0.0281184 0.00113572 -6.26474e-05)
        Pressure : (0.00707886 0.00107181 -6.21665e-05)
        Viscous  : (0.0210395 6.39088e-05 -4.80916e-07)
    Sum of moments
        Total    : (9.32687e-07 2.99121e-05 0.000347645)
        Pressure : (8.11156e-07 3.04063e-05 0.000337239)
        Viscous  : (1.21531e-07 -4.94224e-07 1.04057e-05)
    writing force and moment files.

Time = 43

smoothSolver:  Solving for Ux, Initial residual = 2.85045e-05, Final residual = 1.17541e-06, No Iterations 2
smoothSolver:  Solving for Uy, Initial residual = 0.00324179, Final residual = 0.000121218, No Iterations 2
smoothSolver:  Solving for Uz, Initial residual = 0.00300936, Final residual = 9.87198e-05, No Iterations 2
GAMG:  Solving for p, Initial residual = 0.00407854, Final residual = 0.00027198, No Iterations 2
time step continuity errors : sum local = 5.39971e-07, global = 1.91898e-08, cumulative = 4.61402e-07
smoothSolver:  Solving for omega, Initial residual = 6.80208e-06, Final residual = 1.46827e-07, No Iterations 2
smoothSolver:  Solving for k, Initial residual = 0.00238245, Final residual = 3.83448e-05, No Iterations 2
ExecutionTime = 27.79 s  ClockTime = 28 s

forces forcesFish write:
    Sum of forces
        Total    : (0.0279835 0.00108513 -7.05899e-05)
        Pressure : (0.00703942 0.00101824 -7.00943e-05)
        Viscous  : (0.0209441 6.68943e-05 -4.95626e-07)
    Sum of moments
        Total    : (7.5223e-07 3.15378e-05 0.000336436)
        Pressure : (6.30724e-07 3.20232e-05 0.000325399)
        Viscous  : (1.21505e-07 -4.85431e-07 1.10375e-05)
    writing force and moment files.

Time = 44

smoothSolver:  Solving for Ux, Initial residual = 2.63132e-05, Final residual = 1.11109e-06, No Iterations 2
smoothSolver:  Solving for Uy, Initial residual = 0.00272268, Final residual = 9.84605e-05, No Iterations 2
smoothSolver:  Solving for Uz, Initial residual = 0.00295661, Final residual = 9.46345e-05, No Iterations 2
GAMG:  Solving for p, Initial residual = 0.00384618, Final residual = 0.000252292, No Iterations 2
time step continuity errors : sum local = 5.02384e-07, global = -1.23457e-09, cumulative = 4.60167e-07
smoothSolver:  Solving for omega, Initial residual = 5.8289e-06, Final residual = 1.30604e-07, No Iterations 2
smoothSolver:  Solving for k, Initial residual = 0.00213154, Final residual = 3.35117e-05, No Iterations 2
ExecutionTime = 28.42 s  ClockTime = 29 s

forces forcesFish write:
    Sum of forces
        Total    : (0.0278504 0.00103737 -8.22726e-05)
        Pressure : (0.00699951 0.000967724 -8.17637e-05)
        Viscous  : (0.0208509 6.96491e-05 -5.08853e-07)
    Sum of moments
        Total    : (6.35481e-07 3.40045e-05 0.000325435)
        Pressure : (5.13933e-07 3.44795e-05 0.000313825)
        Viscous  : (1.21548e-07 -4.7506e-07 1.16105e-05)
    writing force and moment files.

Time = 45

smoothSolver:  Solving for Ux, Initial residual = 2.55122e-05, Final residual = 1.07087e-06, No Iterations 2
smoothSolver:  Solving for Uy, Initial residual = 0.0023091, Final residual = 8.03853e-05, No Iterations 2
smoothSolver:  Solving for Uz, Initial residual = 0.00286362, Final residual = 8.83676e-05, No Iterations 2
GAMG:  Solving for p, Initial residual = 0.00360201, Final residual = 0.000225383, No Iterations 2
time step continuity errors : sum local = 4.50778e-07, global = -2.3042e-08, cumulative = 4.37125e-07
smoothSolver:  Solving for omega, Initial residual = 4.98327e-06, Final residual = 1.16534e-07, No Iterations 2
smoothSolver:  Solving for k, Initial residual = 0.0018934, Final residual = 2.91207e-05, No Iterations 2
ExecutionTime = 29.06 s  ClockTime = 29 s

forces forcesFish write:
    Sum of forces
        Total    : (0.0277201 0.000994396 -9.49004e-05)
        Pressure : (0.00696006 0.000922203 -9.43786e-05)
        Viscous  : (0.0207601 7.21925e-05 -5.2178e-07)
    Sum of moments
        Total    : (5.85164e-07 3.66893e-05 0.000315089)
        Pressure : (4.63518e-07 3.71527e-05 0.000302958)
        Viscous  : (1.21646e-07 -4.63368e-07 1.21319e-05)
    writing force and moment files.

Time = 46

smoothSolver:  Solving for Ux, Initial residual = 2.55897e-05, Final residual = 1.04405e-06, No Iterations 2
smoothSolver:  Solving for Uy, Initial residual = 0.00198246, Final residual = 6.61044e-05, No Iterations 2
smoothSolver:  Solving for Uz, Initial residual = 0.00274851, Final residual = 8.20983e-05, No Iterations 2
GAMG:  Solving for p, Initial residual = 0.00336896, Final residual = 0.00019515, No Iterations 2
time step continuity errors : sum local = 3.92347e-07, global = -4.22129e-08, cumulative = 3.94912e-07
smoothSolver:  Solving for omega, Initial residual = 4.25548e-06, Final residual = 1.04368e-07, No Iterations 2
smoothSolver:  Solving for k, Initial residual = 0.0016684, Final residual = 2.51656e-05, No Iterations 2
ExecutionTime = 29.68 s  ClockTime = 30 s

forces forcesFish write:
    Sum of forces
        Total    : (0.0275931 0.000957186 -0.000106091)
        Pressure : (0.00692162 0.000882635 -0.00010556)
        Viscous  : (0.0206715 7.45514e-05 -5.30767e-07)
    Sum of moments
        Total    : (5.92063e-07 3.90455e-05 0.00030571)
        Pressure : (4.70389e-07 3.94982e-05 0.000293101)
        Viscous  : (1.21674e-07 -4.527e-07 1.26096e-05)
    writing force and moment files.

Time = 47

smoothSolver:  Solving for Ux, Initial residual = 2.57283e-05, Final residual = 1.01805e-06, No Iterations 2
smoothSolver:  Solving for Uy, Initial residual = 0.00171252, Final residual = 5.46967e-05, No Iterations 2
smoothSolver:  Solving for Uz, Initial residual = 0.00262654, Final residual = 7.6712e-05, No Iterations 2
GAMG:  Solving for p, Initial residual = 0.00314778, Final residual = 0.000166649, No Iterations 2
time step continuity errors : sum local = 3.36848e-07, global = -5.5899e-08, cumulative = 3.39013e-07
smoothSolver:  Solving for omega, Initial residual = 3.63493e-06, Final residual = 9.38542e-08, No Iterations 2
smoothSolver:  Solving for k, Initial residual = 0.00145844, Final residual = 2.16522e-05, No Iterations 2
ExecutionTime = 30.33 s  ClockTime = 31 s

forces forcesFish write:
    Sum of forces
        Total    : (0.0274694 0.00092567 -0.000114204)
        Pressure : (0.0068843 0.000848919 -0.000113664)
        Viscous  : (0.0205851 7.67519e-05 -5.40102e-07)
    Sum of moments
        Total    : (6.3878e-07 4.06856e-05 0.000297409)
        Pressure : (5.17077e-07 4.11278e-05 0.000284358)
        Viscous  : (1.21703e-07 -4.42229e-07 1.30509e-05)
    writing force and moment files.

Time = 48

smoothSolver:  Solving for Ux, Initial residual = 2.55316e-05, Final residual = 9.87566e-07, No Iterations 2
smoothSolver:  Solving for Uy, Initial residual = 0.00149157, Final residual = 4.56508e-05, No Iterations 2
smoothSolver:  Solving for Uz, Initial residual = 0.00249707, Final residual = 7.17537e-05, No Iterations 2
GAMG:  Solving for p, Initial residual = 0.00295045, Final residual = 0.000150134, No Iterations 2
time step continuity errors : sum local = 3.04956e-07, global = -6.84739e-08, cumulative = 2.70539e-07
smoothSolver:  Solving for omega, Initial residual = 3.11051e-06, Final residual = 8.47405e-08, No Iterations 2
smoothSolver:  Solving for k, Initial residual = 0.00126449, Final residual = 1.85634e-05, No Iterations 2
ExecutionTime = 30.98 s  ClockTime = 31 s

forces forcesFish write:
    Sum of forces
        Total    : (0.0273488 0.000899012 -0.000118442)
        Pressure : (0.00684796 0.000820194 -0.000117891)
        Viscous  : (0.0205009 7.88175e-05 -5.5177e-07)
    Sum of moments
        Total    : (7.04908e-07 4.14116e-05 0.000290126)
        Pressure : (5.83134e-07 4.18433e-05 0.000276665)
        Viscous  : (1.21774e-07 -4.31748e-07 1.34609e-05)
    writing force and moment files.

Time = 49

smoothSolver:  Solving for Ux, Initial residual = 2.49258e-05, Final residual = 9.51676e-07, No Iterations 2
smoothSolver:  Solving for Uy, Initial residual = 0.00131398, Final residual = 3.85939e-05, No Iterations 2
smoothSolver:  Solving for Uz, Initial residual = 0.00236888, Final residual = 6.68673e-05, No Iterations 2
GAMG:  Solving for p, Initial residual = 0.00278356, Final residual = 0.000156287, No Iterations 2
time step continuity errors : sum local = 3.18739e-07, global = -7.85048e-08, cumulative = 1.92034e-07
smoothSolver:  Solving for omega, Initial residual = 2.67079e-06, Final residual = 7.68052e-08, No Iterations 2
smoothSolver:  Solving for k, Initial residual = 0.00108731, Final residual = 1.58725e-05, No Iterations 2
ExecutionTime = 31.61 s  ClockTime = 32 s

forces forcesFish write:
    Sum of forces
        Total    : (0.0272312 0.00087601 -0.000118758)
        Pressure : (0.00681241 0.000795244 -0.000118193)
        Viscous  : (0.0204188 8.07666e-05 -5.64188e-07)
    Sum of moments
        Total    : (7.71339e-07 4.12023e-05 0.000283697)
        Pressure : (6.49506e-07 4.16244e-05 0.000269854)
        Viscous  : (1.21833e-07 -4.22176e-07 1.38427e-05)
    writing force and moment files.

Time = 50

smoothSolver:  Solving for Ux, Initial residual = 2.3932e-05, Final residual = 9.10884e-07, No Iterations 2
smoothSolver:  Solving for Uy, Initial residual = 0.00117034, Final residual = 3.31248e-05, No Iterations 2
smoothSolver:  Solving for Uz, Initial residual = 0.00225065, Final residual = 6.20705e-05, No Iterations 2
GAMG:  Solving for p, Initial residual = 0.00264145, Final residual = 0.000167174, No Iterations 2
time step continuity errors : sum local = 3.41946e-07, global = -8.61385e-08, cumulative = 1.05896e-07
smoothSolver:  Solving for omega, Initial residual = 2.30497e-06, Final residual = 6.98455e-08, No Iterations 2
smoothSolver:  Solving for k, Initial residual = 0.000927705, Final residual = 1.35522e-05, No Iterations 2
ExecutionTime = 32.23 s  ClockTime = 32 s

forces forcesFish write:
    Sum of forces
        Total    : (0.0271164 0.000855472 -0.000115677)
        Pressure : (0.00677762 0.000772856 -0.000115101)
        Viscous  : (0.0203388 8.26155e-05 -5.75406e-07)
    Sum of moments
        Total    : (8.22892e-07 4.01771e-05 0.000277927)
        Pressure : (7.01063e-07 4.05915e-05 0.000263728)
        Viscous  : (1.21829e-07 -4.14349e-07 1.41984e-05)
    writing force and moment files.

Time = 51

smoothSolver:  Solving for Ux, Initial residual = 2.26329e-05, Final residual = 8.66293e-07, No Iterations 2
smoothSolver:  Solving for Uy, Initial residual = 0.00105276, Final residual = 2.88568e-05, No Iterations 2
smoothSolver:  Solving for Uz, Initial residual = 0.00214795, Final residual = 5.76796e-05, No Iterations 2
GAMG:  Solving for p, Initial residual = 0.00251264, Final residual = 0.000170416, No Iterations 2
time step continuity errors : sum local = 3.49191e-07, global = -9.09352e-08, cumulative = 1.49607e-08
smoothSolver:  Solving for omega, Initial residual = 2.00214e-06, Final residual = 6.36875e-08, No Iterations 2
smoothSolver:  Solving for k, Initial residual = 0.000785534, Final residual = 1.15628e-05, No Iterations 2
ExecutionTime = 32.82 s  ClockTime = 33 s

forces forcesFish write:
    Sum of forces
        Total    : (0.0270047 0.000836449 -0.000110146)
        Pressure : (0.00674381 0.000752076 -0.000109561)
        Viscous  : (0.0202609 8.43729e-05 -5.85292e-07)
    Sum of moments
        Total    : (8.49646e-07 3.85633e-05 0.00027265)
        Pressure : (7.27869e-07 3.89714e-05 0.000258122)
        Viscous  : (1.21777e-07 -4.08075e-07 1.45278e-05)
    writing force and moment files.

Time = 52

smoothSolver:  Solving for Ux, Initial residual = 2.12384e-05, Final residual = 8.21112e-07, No Iterations 2
smoothSolver:  Solving for Uy, Initial residual = 0.000953059, Final residual = 2.5431e-05, No Iterations 2
smoothSolver:  Solving for Uz, Initial residual = 0.00205938, Final residual = 5.37789e-05, No Iterations 2
GAMG:  Solving for p, Initial residual = 0.00239125, Final residual = 0.000166309, No Iterations 2
time step continuity errors : sum local = 3.40996e-07, global = -9.25878e-08, cumulative = -7.76271e-08
smoothSolver:  Solving for omega, Initial residual = 1.75191e-06, Final residual = 5.81929e-08, No Iterations 2
smoothSolver:  Solving for k, Initial residual = 0.000660519, Final residual = 9.86732e-06, No Iterations 2
ExecutionTime = 33.4 s  ClockTime = 34 s

forces forcesFish write:
    Sum of forces
        Total    : (0.0268965 0.000818336 -0.000103375)
        Pressure : (0.00671148 0.000732292 -0.00010278)
        Viscous  : (0.0201851 8.60441e-05 -5.95259e-07)
    Sum of moments
        Total    : (8.47853e-07 3.66562e-05 0.000267751)
        Pressure : (7.26117e-07 3.70587e-05 0.000252921)
        Viscous  : (1.21736e-07 -4.02453e-07 1.48299e-05)
    writing force and moment files.

Time = 53

smoothSolver:  Solving for Ux, Initial residual = 2.019e-05, Final residual = 7.8201e-07, No Iterations 2
smoothSolver:  Solving for Uy, Initial residual = 0.000865383, Final residual = 2.2643e-05, No Iterations 2
smoothSolver:  Solving for Uz, Initial residual = 0.00197701, Final residual = 5.04523e-05, No Iterations 2
GAMG:  Solving for p, Initial residual = 0.00227187, Final residual = 0.000155867, No Iterations 2
time step continuity errors : sum local = 3.1952e-07, global = -9.14653e-08, cumulative = -1.69092e-07
smoothSolver:  Solving for omega, Initial residual = 1.54514e-06, Final residual = 5.32494e-08, No Iterations 2
smoothSolver:  Solving for k, Initial residual = 0.000551994, Final residual = 8.42922e-06, No Iterations 2
ExecutionTime = 33.96 s  ClockTime = 34 s

forces forcesFish write:
    Sum of forces
        Total    : (0.0267923 0.000800851 -9.658e-05)
        Pressure : (0.00668112 0.000713222 -9.59742e-05)
        Viscous  : (0.0201112 8.76294e-05 -6.05834e-07)
    Sum of moments
        Total    : (8.20091e-07 3.47569e-05 0.000263158)
        Pressure : (6.98363e-07 3.5154e-05 0.000248055)
        Viscous  : (1.21728e-07 -3.97019e-07 1.51029e-05)
    writing force and moment files.

Time = 54

smoothSolver:  Solving for Ux, Initial residual = 1.97627e-05, Final residual = 7.53432e-07, No Iterations 2
smoothSolver:  Solving for Uy, Initial residual = 0.00078784, Final residual = 2.04098e-05, No Iterations 2
smoothSolver:  Solving for Uz, Initial residual = 0.00189923, Final residual = 4.78992e-05, No Iterations 2
GAMG:  Solving for p, Initial residual = 0.00215958, Final residual = 0.000140134, No Iterations 2
time step continuity errors : sum local = 2.87072e-07, global = -8.79147e-08, cumulative = -2.57007e-07
smoothSolver:  Solving for omega, Initial residual = 1.37403e-06, Final residual = 4.87762e-08, No Iterations 2
smoothSolver:  Solving for k, Initial residual = 0.000458811, Final residual = 7.21161e-06, No Iterations 2
ExecutionTime = 34.53 s  ClockTime = 35 s

forces forcesFish write:
    Sum of forces
        Total    : (0.0266924 0.000783961 -9.06911e-05)
        Pressure : (0.00665306 0.000694833 -9.0076e-05)
        Viscous  : (0.0200393 8.91284e-05 -6.15078e-07)
    Sum of moments
        Total    : (7.73682e-07 3.30972e-05 0.000258828)
        Pressure : (6.51937e-07 3.34893e-05 0.000243482)
        Viscous  : (1.21745e-07 -3.92099e-07 1.53457e-05)
    writing force and moment files.

Time = 55

smoothSolver:  Solving for Ux, Initial residual = 1.98215e-05, Final residual = 7.33158e-07, No Iterations 2
smoothSolver:  Solving for Uy, Initial residual = 0.000721345, Final residual = 1.86099e-05, No Iterations 2
smoothSolver:  Solving for Uz, Initial residual = 0.00183007, Final residual = 4.63338e-05, No Iterations 2
GAMG:  Solving for p, Initial residual = 0.00205919, Final residual = 0.000121365, No Iterations 2
time step continuity errors : sum local = 2.4842e-07, global = -8.1437e-08, cumulative = -3.38444e-07
smoothSolver:  Solving for omega, Initial residual = 1.23204e-06, Final residual = 4.47217e-08, No Iterations 2
smoothSolver:  Solving for k, Initial residual = 0.000379634, Final residual = 6.18148e-06, No Iterations 2
ExecutionTime = 35.12 s  ClockTime = 35 s

forces forcesFish write:
    Sum of forces
        Total    : (0.0265967 0.000767769 -8.6198e-05)
        Pressure : (0.00662734 0.00067723 -8.55762e-05)
        Viscous  : (0.0199693 9.05388e-05 -6.2183e-07)
    Sum of moments
        Total    : (7.17659e-07 3.17993e-05 0.000254735)
        Pressure : (5.95882e-07 3.21872e-05 0.000239178)
        Viscous  : (1.21777e-07 -3.87903e-07 1.55568e-05)
    writing force and moment files.

Time = 56

smoothSolver:  Solving for Ux, Initial residual = 1.99376e-05, Final residual = 7.15392e-07, No Iterations 2
smoothSolver:  Solving for Uy, Initial residual = 0.000664753, Final residual = 1.71091e-05, No Iterations 2
smoothSolver:  Solving for Uz, Initial residual = 0.00176284, Final residual = 4.52323e-05, No Iterations 2
GAMG:  Solving for p, Initial residual = 0.00196907, Final residual = 0.000101215, No Iterations 2
time step continuity errors : sum local = 2.07023e-07, global = -7.09673e-08, cumulative = -4.09411e-07
smoothSolver:  Solving for omega, Initial residual = 1.11353e-06, Final residual = 4.10305e-08, No Iterations 2
smoothSolver:  Solving for k, Initial residual = 0.00031309, Final residual = 5.31105e-06, No Iterations 2
ExecutionTime = 35.74 s  ClockTime = 36 s

forces forcesFish write:
    Sum of forces
        Total    : (0.0265051 0.000752439 -8.31865e-05)
        Pressure : (0.00660385 0.00066058 -8.25604e-05)
        Viscous  : (0.0199013 9.1859e-05 -6.26073e-07)
    Sum of moments
        Total    : (6.60217e-07 3.0883e-05 0.000250863)
        Pressure : (5.38396e-07 3.12673e-05 0.000235127)
        Viscous  : (1.21821e-07 -3.84313e-07 1.57354e-05)
    writing force and moment files.

Time = 57

smoothSolver:  Solving for Ux, Initial residual = 1.98219e-05, Final residual = 6.95976e-07, No Iterations 2
smoothSolver:  Solving for Uy, Initial residual = 0.000611858, Final residual = 1.57544e-05, No Iterations 2
smoothSolver:  Solving for Uz, Initial residual = 0.0016933, Final residual = 4.40847e-05, No Iterations 2
GAMG:  Solving for p, Initial residual = 0.001892, Final residual = 8.25419e-05, No Iterations 2
time step continuity errors : sum local = 1.68733e-07, global = -5.56913e-08, cumulative = -4.65103e-07
smoothSolver:  Solving for omega, Initial residual = 1.0135e-06, Final residual = 3.76592e-08, No Iterations 2
smoothSolver:  Solving for k, Initial residual = 0.000257664, Final residual = 4.57487e-06, No Iterations 2
ExecutionTime = 36.46 s  ClockTime = 37 s

forces forcesFish write:
    Sum of forces
        Total    : (0.0264175 0.000738163 -8.14678e-05)
        Pressure : (0.00658241 0.000645074 -8.08393e-05)
        Viscous  : (0.0198351 9.30895e-05 -6.28582e-07)
    Sum of moments
        Total    : (6.07435e-07 3.02974e-05 0.000247218)
        Pressure : (4.8556e-07 3.06784e-05 0.000231336)
        Viscous  : (1.21875e-07 -3.80949e-07 1.58818e-05)
    writing force and moment files.

Time = 58

smoothSolver:  Solving for Ux, Initial residual = 1.94556e-05, Final residual = 6.74207e-07, No Iterations 2
smoothSolver:  Solving for Uy, Initial residual = 0.000561752, Final residual = 1.45079e-05, No Iterations 2
smoothSolver:  Solving for Uz, Initial residual = 0.00162176, Final residual = 4.27347e-05, No Iterations 2
GAMG:  Solving for p, Initial residual = 0.00182583, Final residual = 6.99112e-05, No Iterations 2
time step continuity errors : sum local = 1.42854e-07, global = -3.5435e-08, cumulative = -5.00538e-07
smoothSolver:  Solving for omega, Initial residual = 9.28107e-07, Final residual = 3.45772e-08, No Iterations 2
smoothSolver:  Solving for k, Initial residual = 0.000211848, Final residual = 3.95092e-06, No Iterations 2
ExecutionTime = 37.17 s  ClockTime = 37 s

forces forcesFish write:
    Sum of forces
        Total    : (0.0263336 0.000725128 -8.07015e-05)
        Pressure : (0.00656287 0.000630892 -8.00713e-05)
        Viscous  : (0.0197707 9.42356e-05 -6.30183e-07)
    Sum of moments
        Total    : (5.62966e-07 2.99512e-05 0.000243821)
        Pressure : (4.41034e-07 3.03287e-05 0.000227822)
        Viscous  : (1.21932e-07 -3.77532e-07 1.59988e-05)
    writing force and moment files.

Time = 59

smoothSolver:  Solving for Ux, Initial residual = 1.88629e-05, Final residual = 6.50222e-07, No Iterations 2
smoothSolver:  Solving for Uy, Initial residual = 0.000514423, Final residual = 1.3317e-05, No Iterations 2
smoothSolver:  Solving for Uz, Initial residual = 0.00154962, Final residual = 4.11456e-05, No Iterations 2
GAMG:  Solving for p, Initial residual = 0.001773, Final residual = 6.74056e-05, No Iterations 2
time step continuity errors : sum local = 1.37696e-07, global = -1.14123e-08, cumulative = -5.1195e-07
smoothSolver:  Solving for omega, Initial residual = 8.5421e-07, Final residual = 3.17485e-08, No Iterations 2
smoothSolver:  Solving for k, Initial residual = 0.00017422, Final residual = 3.42055e-06, No Iterations 2
ExecutionTime = 37.9 s  ClockTime = 38 s

forces forcesFish write:
    Sum of forces
        Total    : (0.0262532 0.000713507 -8.04849e-05)
        Pressure : (0.00654501 0.000618202 -7.98541e-05)
        Viscous  : (0.0197082 9.53053e-05 -6.30762e-07)
    Sum of moments
        Total    : (5.28178e-07 2.97354e-05 0.000240705)
        Pressure : (4.06177e-07 3.01096e-05 0.000224614)
        Viscous  : (1.22e-07 -3.74233e-07 1.60904e-05)
    writing force and moment files.

Time = 60

smoothSolver:  Solving for Ux, Initial residual = 1.80563e-05, Final residual = 6.24304e-07, No Iterations 2
smoothSolver:  Solving for Uy, Initial residual = 0.000469983, Final residual = 1.21755e-05, No Iterations 2
smoothSolver:  Solving for Uz, Initial residual = 0.00147445, Final residual = 3.9382e-05, No Iterations 2
GAMG:  Solving for p, Initial residual = 0.00172228, Final residual = 7.67881e-05, No Iterations 2
time step continuity errors : sum local = 1.56837e-07, global = 1.56143e-08, cumulative = -4.96336e-07
smoothSolver:  Solving for omega, Initial residual = 7.89454e-07, Final residual = 2.91512e-08, No Iterations 2
smoothSolver:  Solving for k, Initial residual = 0.000143511, Final residual = 2.96887e-06, No Iterations 2
ExecutionTime = 38.61 s  ClockTime = 39 s

forces forcesFish write:
    Sum of forces
        Total    : (0.0261761 0.000703417 -8.04259e-05)
        Pressure : (0.00652861 0.000607111 -7.97959e-05)
        Viscous  : (0.0196475 9.63059e-05 -6.29944e-07)
    Sum of moments
        Total    : (5.02464e-07 2.9544e-05 0.000237903)
        Pressure : (3.80388e-07 2.99154e-05 0.000221743)
        Viscous  : (1.22076e-07 -3.71369e-07 1.61597e-05)
    writing force and moment files.

Time = 61

smoothSolver:  Solving for Ux, Initial residual = 1.70678e-05, Final residual = 5.96683e-07, No Iterations 2
smoothSolver:  Solving for Uy, Initial residual = 0.000428623, Final residual = 1.11367e-05, No Iterations 2
smoothSolver:  Solving for Uz, Initial residual = 0.00139699, Final residual = 3.76114e-05, No Iterations 2
GAMG:  Solving for p, Initial residual = 0.00167149, Final residual = 8.52538e-05, No Iterations 2
time step continuity errors : sum local = 1.74111e-07, global = 4.15522e-08, cumulative = -4.54783e-07
smoothSolver:  Solving for omega, Initial residual = 7.3204e-07, Final residual = 2.67595e-08, No Iterations 2
smoothSolver:  Solving for k, Initial residual = 0.000118553, Final residual = 2.58291e-06, No Iterations 2
ExecutionTime = 39.44 s  ClockTime = 40 s

forces forcesFish write:
    Sum of forces
        Total    : (0.0261019 0.00069488 -8.0201e-05)
        Pressure : (0.00651343 0.000597637 -7.95734e-05)
        Viscous  : (0.0195885 9.7243e-05 -6.27587e-07)
    Sum of moments
        Total    : (4.839e-07 2.92899e-05 0.000235434)
        Pressure : (3.61752e-07 2.9659e-05 0.000219224)
        Viscous  : (1.22148e-07 -3.69097e-07 1.62094e-05)
    writing force and moment files.

Time = 62

smoothSolver:  Solving for Ux, Initial residual = 1.58837e-05, Final residual = 5.67174e-07, No Iterations 2
smoothSolver:  Solving for Uy, Initial residual = 0.000390804, Final residual = 1.02471e-05, No Iterations 2
smoothSolver:  Solving for Uz, Initial residual = 0.00132143, Final residual = 3.6038e-05, No Iterations 2
GAMG:  Solving for p, Initial residual = 0.00162106, Final residual = 9.28603e-05, No Iterations 2
time step continuity errors : sum local = 1.89641e-07, global = 6.3757e-08, cumulative = -3.91026e-07
smoothSolver:  Solving for omega, Initial residual = 6.80513e-07, Final residual = 2.45586e-08, No Iterations 2
smoothSolver:  Solving for k, Initial residual = 9.83277e-05, Final residual = 2.25195e-06, No Iterations 2
ExecutionTime = 40.27 s  ClockTime = 40 s

forces forcesFish write:
    Sum of forces
        Total    : (0.0260306 0.000687816 -7.95881e-05)
        Pressure : (0.0064993 0.000589695 -7.89634e-05)
        Viscous  : (0.0195313 9.81216e-05 -6.24689e-07)
    Sum of moments
        Total    : (4.69872e-07 2.89146e-05 0.000233294)
        Pressure : (3.47645e-07 2.92818e-05 0.000217053)
        Viscous  : (1.22227e-07 -3.67118e-07 1.62415e-05)
    writing force and moment files.

Time = 63

smoothSolver:  Solving for Ux, Initial residual = 1.45056e-05, Final residual = 5.35908e-07, No Iterations 2
smoothSolver:  Solving for Uy, Initial residual = 0.000357098, Final residual = 9.48768e-06, No Iterations 2
smoothSolver:  Solving for Uz, Initial residual = 0.00125057, Final residual = 3.47673e-05, No Iterations 2
GAMG:  Solving for p, Initial residual = 0.00157135, Final residual = 9.88434e-05, No Iterations 2
time step continuity errors : sum local = 2.01871e-07, global = 7.98421e-08, cumulative = -3.11184e-07
smoothSolver:  Solving for omega, Initial residual = 6.34271e-07, Final residual = 2.25426e-08, No Iterations 2
smoothSolver:  Solving for k, Initial residual = 8.19604e-05, Final residual = 1.96714e-06, No Iterations 2
ExecutionTime = 41.15 s  ClockTime = 41 s

forces forcesFish write:
    Sum of forces
        Total    : (0.0259619 0.000682057 -7.84788e-05)
        Pressure : (0.00648604 0.000583112 -7.78529e-05)
        Viscous  : (0.0194759 9.89448e-05 -6.25849e-07)
    Sum of moments
        Total    : (4.57706e-07 2.83917e-05 0.000231459)
        Pressure : (3.35312e-07 2.87553e-05 0.000215202)
        Viscous  : (1.22394e-07 -3.63655e-07 1.62574e-05)
    writing force and moment files.

Time = 64

[...]

Time = 207

smoothSolver:  Solving for Ux, Initial residual = 4.82256e-08, Final residual = 5.95853e-09, No Iterations 1
smoothSolver:  Solving for Uy, Initial residual = 2.96643e-06, Final residual = 4.67814e-08, No Iterations 2
smoothSolver:  Solving for Uz, Initial residual = 2.03674e-05, Final residual = 3.10163e-07, No Iterations 2
GAMG:  Solving for p, Initial residual = 2.07866e-05, Final residual = 9.78119e-07, No Iterations 2
time step continuity errors : sum local = 1.96633e-09, global = -6.17781e-10, cumulative = -3.65722e-08
smoothSolver:  Solving for omega, Initial residual = 9.96299e-09, Final residual = 9.96299e-09, No Iterations 0
smoothSolver:  Solving for k, Initial residual = 1.02694e-08, Final residual = 9.11695e-10, No Iterations 1
ExecutionTime = 128.6 s  ClockTime = 129 s

forces forcesFish write:
    Sum of forces
        Total    : (0.0244902 0.000622151 -3.59686e-06)
        Pressure : (0.00625442 0.000510643 -3.14383e-06)
        Viscous  : (0.0182358 0.000111508 -4.53028e-07)
    Sum of moments
        Total    : (-4.52468e-07 3.36446e-07 0.000205237)
        Pressure : (-5.82308e-07 6.88009e-07 0.000191536)
        Viscous  : (1.2984e-07 -3.51562e-07 1.37015e-05)
    writing force and moment files.

Time = 208

smoothSolver:  Solving for Ux, Initial residual = 5.02909e-08, Final residual = 6.13552e-09, No Iterations 1
smoothSolver:  Solving for Uy, Initial residual = 2.88503e-06, Final residual = 4.48646e-08, No Iterations 2
smoothSolver:  Solving for Uz, Initial residual = 1.98947e-05, Final residual = 2.993e-07, No Iterations 2
GAMG:  Solving for p, Initial residual = 2.01526e-05, Final residual = 8.49621e-07, No Iterations 2
time step continuity errors : sum local = 1.708e-09, global = -4.0367e-10, cumulative = -3.69759e-08
smoothSolver:  Solving for omega, Initial residual = 1.05309e-08, Final residual = 1.1128e-09, No Iterations 1
smoothSolver:  Solving for k, Initial residual = 9.6091e-09, Final residual = 9.6091e-09, No Iterations 0
ExecutionTime = 129.13 s  ClockTime = 129 s

forces forcesFish write:
    Sum of forces
        Total    : (0.0244902 0.000622182 -3.23492e-06)
        Pressure : (0.00625447 0.00051067 -2.78622e-06)
        Viscous  : (0.0182357 0.000111512 -4.48701e-07)
    Sum of moments
        Total    : (-4.5633e-07 2.01408e-07 0.000205251)
        Pressure : (-5.86149e-07 5.54468e-07 0.000191548)
        Viscous  : (1.29819e-07 -3.5306e-07 1.3703e-05)
    writing force and moment files.

Time = 209

smoothSolver:  Solving for Ux, Initial residual = 5.14366e-08, Final residual = 6.21209e-09, No Iterations 1
smoothSolver:  Solving for Uy, Initial residual = 2.79545e-06, Final residual = 4.28292e-08, No Iterations 2
smoothSolver:  Solving for Uz, Initial residual = 1.93632e-05, Final residual = 2.87567e-07, No Iterations 2
GAMG:  Solving for p, Initial residual = 1.94807e-05, Final residual = 1.88512e-06, No Iterations 1
time step continuity errors : sum local = 3.78964e-09, global = -1.66166e-10, cumulative = -3.7142e-08
smoothSolver:  Solving for omega, Initial residual = 4.76622e-09, Final residual = 4.76622e-09, No Iterations 0
smoothSolver:  Solving for k, Initial residual = 1.00784e-08, Final residual = 9.07967e-10, No Iterations 1
ExecutionTime = 129.64 s  ClockTime = 130 s

forces forcesFish write:
    Sum of forces
        Total    : (0.0244902 0.000622212 -3.02168e-06)
        Pressure : (0.0062545 0.000510696 -2.57735e-06)
        Viscous  : (0.0182357 0.000111516 -4.44329e-07)
    Sum of moments
        Total    : (-4.58709e-07 1.20959e-07 0.000205263)
        Pressure : (-5.88506e-07 4.75557e-07 0.000191559)
        Viscous  : (1.29796e-07 -3.54598e-07 1.37045e-05)
    writing force and moment files.

Time = 210

smoothSolver:  Solving for Ux, Initial residual = 5.04185e-08, Final residual = 6.0503e-09, No Iterations 1
smoothSolver:  Solving for Uy, Initial residual = 2.64604e-06, Final residual = 3.91145e-08, No Iterations 2
smoothSolver:  Solving for Uz, Initial residual = 1.85128e-05, Final residual = 2.66745e-07, No Iterations 2
GAMG:  Solving for p, Initial residual = 1.89023e-05, Final residual = 1.8687e-06, No Iterations 1
time step continuity errors : sum local = 3.75663e-09, global = 7.1404e-11, cumulative = -3.70706e-08
smoothSolver:  Solving for omega, Initial residual = 5.26818e-09, Final residual = 5.26818e-09, No Iterations 0
smoothSolver:  Solving for k, Initial residual = 8.74644e-09, Final residual = 8.74644e-09, No Iterations 0
ExecutionTime = 130.16 s  ClockTime = 130 s

forces forcesFish write:
    Sum of forces
        Total    : (0.0244902 0.000622242 -2.81698e-06)
        Pressure : (0.00625453 0.000510722 -2.37675e-06)
        Viscous  : (0.0182357 0.000111521 -4.4023e-07)
    Sum of moments
        Total    : (-4.61041e-07 4.3686e-08 0.000205275)
        Pressure : (-5.90815e-07 3.99729e-07 0.000191569)
        Viscous  : (1.29775e-07 -3.56043e-07 1.3706e-05)
    writing force and moment files.

Time = 211

smoothSolver:  Solving for Ux, Initial residual = 4.92207e-08, Final residual = 5.85833e-09, No Iterations 1
smoothSolver:  Solving for Uy, Initial residual = 2.5172e-06, Final residual = 3.61924e-08, No Iterations 2
smoothSolver:  Solving for Uz, Initial residual = 1.77395e-05, Final residual = 2.49252e-07, No Iterations 2
GAMG:  Solving for p, Initial residual = 1.83031e-05, Final residual = 6.84834e-07, No Iterations 2
time step continuity errors : sum local = 1.37671e-09, global = 2.76234e-10, cumulative = -3.67944e-08
smoothSolver:  Solving for omega, Initial residual = 5.68015e-09, Final residual = 5.68015e-09, No Iterations 0
smoothSolver:  Solving for k, Initial residual = 9.08304e-09, Final residual = 9.08304e-09, No Iterations 0
ExecutionTime = 130.69 s  ClockTime = 131 s

forces forcesFish write:
    Sum of forces
        Total    : (0.0244903 0.000622268 -2.52909e-06)
        Pressure : (0.00625458 0.000510743 -2.09289e-06)
        Viscous  : (0.0182357 0.000111525 -4.36199e-07)
    Sum of moments
        Total    : (-4.64324e-07 -6.39406e-08 0.000205287)
        Pressure : (-5.94075e-07 2.93536e-07 0.00019158)
        Viscous  : (1.29751e-07 -3.57476e-07 1.37074e-05)
    writing force and moment files.

Time = 212

smoothSolver:  Solving for Ux, Initial residual = 4.84534e-08, Final residual = 5.71439e-09, No Iterations 1
smoothSolver:  Solving for Uy, Initial residual = 2.46001e-06, Final residual = 3.55302e-08, No Iterations 2
smoothSolver:  Solving for Uz, Initial residual = 1.72762e-05, Final residual = 2.43877e-07, No Iterations 2
GAMG:  Solving for p, Initial residual = 1.75479e-05, Final residual = 1.75314e-06, No Iterations 1
time step continuity errors : sum local = 3.52429e-09, global = 5.23668e-10, cumulative = -3.62707e-08
smoothSolver:  Solving for omega, Initial residual = 6.16177e-09, Final residual = 6.16177e-09, No Iterations 0
smoothSolver:  Solving for k, Initial residual = 9.30188e-09, Final residual = 9.30188e-09, No Iterations 0
ExecutionTime = 131.22 s  ClockTime = 131 s

forces forcesFish write:
    Sum of forces
        Total    : (0.0244903 0.000622292 -2.37009e-06)
        Pressure : (0.0062546 0.000510762 -1.93836e-06)
        Viscous  : (0.0182357 0.000111529 -4.31724e-07)
    Sum of moments
        Total    : (-4.66213e-07 -1.23964e-07 0.000205297)
        Pressure : (-5.95936e-07 2.35141e-07 0.000191588)
        Viscous  : (1.29722e-07 -3.59105e-07 1.3709e-05)
    writing force and moment files.

Time = 213

smoothSolver:  Solving for Ux, Initial residual = 4.66694e-08, Final residual = 5.48847e-09, No Iterations 1
smoothSolver:  Solving for Uy, Initial residual = 2.33351e-06, Final residual = 3.29198e-08, No Iterations 2
smoothSolver:  Solving for Uz, Initial residual = 1.64488e-05, Final residual = 2.28289e-07, No Iterations 2
GAMG:  Solving for p, Initial residual = 1.69812e-05, Final residual = 6.71793e-07, No Iterations 2
time step continuity errors : sum local = 1.35048e-09, global = 6.71803e-10, cumulative = -3.55989e-08
smoothSolver:  Solving for omega, Initial residual = 6.53872e-09, Final residual = 6.53872e-09, No Iterations 0
smoothSolver:  Solving for k, Initial residual = 9.65284e-09, Final residual = 9.65284e-09, No Iterations 0
ExecutionTime = 131.77 s  ClockTime = 132 s

forces forcesFish write:
    Sum of forces
        Total    : (0.0244903 0.000622307 -2.16605e-06)
        Pressure : (0.00625466 0.000510773 -1.73827e-06)
        Viscous  : (0.0182356 0.000111534 -4.27781e-07)
    Sum of moments
        Total    : (-4.68683e-07 -2.00153e-07 0.000205305)
        Pressure : (-5.98379e-07 1.60379e-07 0.000191594)
        Viscous  : (1.29696e-07 -3.60532e-07 1.37105e-05)
    writing force and moment files.

Time = 214

smoothSolver:  Solving for Ux, Initial residual = 4.45931e-08, Final residual = 5.22083e-09, No Iterations 1
smoothSolver:  Solving for Uy, Initial residual = 2.265e-06, Final residual = 3.21139e-08, No Iterations 2
smoothSolver:  Solving for Uz, Initial residual = 1.59008e-05, Final residual = 2.22404e-07, No Iterations 2
GAMG:  Solving for p, Initial residual = 1.62829e-05, Final residual = 6.97346e-07, No Iterations 2
time step continuity errors : sum local = 1.40184e-09, global = 8.15261e-10, cumulative = -3.47837e-08
smoothSolver:  Solving for omega, Initial residual = 6.9226e-09, Final residual = 6.9226e-09, No Iterations 0
smoothSolver:  Solving for k, Initial residual = 9.92722e-09, Final residual = 9.92722e-09, No Iterations 0
ExecutionTime = 132.3 s  ClockTime = 133 s

forces forcesFish write:
    Sum of forces
        Total    : (0.0244903 0.000622314 -2.0183e-06)
        Pressure : (0.00625471 0.000510776 -1.59487e-06)
        Viscous  : (0.0182356 0.000111538 -4.23435e-07)
    Sum of moments
        Total    : (-4.70547e-07 -2.5522e-07 0.000205309)
        Pressure : (-6.00212e-07 1.06915e-07 0.000191597)
        Viscous  : (1.29665e-07 -3.62135e-07 1.37121e-05)
    writing force and moment files.

Time = 215

smoothSolver:  Solving for Ux, Initial residual = 4.15656e-08, Final residual = 4.8752e-09, No Iterations 1
smoothSolver:  Solving for Uy, Initial residual = 2.17436e-06, Final residual = 3.08347e-08, No Iterations 2
smoothSolver:  Solving for Uz, Initial residual = 1.52452e-05, Final residual = 2.14316e-07, No Iterations 2
GAMG:  Solving for p, Initial residual = 1.56258e-05, Final residual = 7.41197e-07, No Iterations 2
time step continuity errors : sum local = 1.48999e-09, global = 9.17151e-10, cumulative = -3.38665e-08
smoothSolver:  Solving for omega, Initial residual = 7.28652e-09, Final residual = 7.28652e-09, No Iterations 0
smoothSolver:  Solving for k, Initial residual = 1.01878e-08, Final residual = 8.787e-10, No Iterations 1
ExecutionTime = 132.92 s  ClockTime = 133 s

forces forcesFish write:
    Sum of forces
        Total    : (0.0244904 0.000622313 -1.92424e-06)
        Pressure : (0.00625477 0.00051077 -1.50502e-06)
        Viscous  : (0.0182356 0.000111542 -4.19214e-07)
    Sum of moments
        Total    : (-4.71828e-07 -2.90176e-07 0.000205311)
        Pressure : (-6.0146e-07 7.35224e-08 0.000191597)
        Viscous  : (1.29632e-07 -3.63699e-07 1.37136e-05)
    writing force and moment files.

Time = 216

smoothSolver:  Solving for Ux, Initial residual = 3.78165e-08, Final residual = 4.45359e-09, No Iterations 1
smoothSolver:  Solving for Uy, Initial residual = 2.06391e-06, Final residual = 2.91105e-08, No Iterations 2
smoothSolver:  Solving for Uz, Initial residual = 1.44955e-05, Final residual = 2.03374e-07, No Iterations 2
GAMG:  Solving for p, Initial residual = 1.49819e-05, Final residual = 7.7292e-07, No Iterations 2
time step continuity errors : sum local = 1.55376e-09, global = 9.77309e-10, cumulative = -3.28892e-08
smoothSolver:  Solving for omega, Initial residual = 7.6626e-09, Final residual = 7.6626e-09, No Iterations 0
smoothSolver:  Solving for k, Initial residual = 8.66736e-09, Final residual = 8.66736e-09, No Iterations 0
ExecutionTime = 133.54 s  ClockTime = 134 s

forces forcesFish write:
    Sum of forces
        Total    : (0.0244904 0.000622305 -1.87866e-06)
        Pressure : (0.00625484 0.000510759 -1.46358e-06)
        Viscous  : (0.0182356 0.000111547 -4.15076e-07)
    Sum of moments
        Total    : (-4.72583e-07 -3.07031e-07 0.00020531)
        Pressure : (-6.02183e-07 5.82111e-08 0.000191595)
        Viscous  : (1.296e-07 -3.65242e-07 1.37151e-05)
    writing force and moment files.

Time = 217

smoothSolver:  Solving for Ux, Initial residual = 3.34641e-08, Final residual = 3.9653e-09, No Iterations 1
smoothSolver:  Solving for Uy, Initial residual = 1.93979e-06, Final residual = 2.7119e-08, No Iterations 2
smoothSolver:  Solving for Uz, Initial residual = 1.36864e-05, Final residual = 1.90884e-07, No Iterations 2
GAMG:  Solving for p, Initial residual = 1.43316e-05, Final residual = 7.90953e-07, No Iterations 2
time step continuity errors : sum local = 1.59001e-09, global = 9.98142e-10, cumulative = -3.18911e-08
smoothSolver:  Solving for omega, Initial residual = 7.98656e-09, Final residual = 7.98656e-09, No Iterations 0
smoothSolver:  Solving for k, Initial residual = 8.87447e-09, Final residual = 8.87447e-09, No Iterations 0
ExecutionTime = 134.2 s  ClockTime = 134 s

forces forcesFish write:
    Sum of forces
        Total    : (0.0244905 0.000622293 -1.87652e-06)
        Pressure : (0.00625491 0.000510742 -1.46545e-06)
        Viscous  : (0.0182356 0.000111551 -4.11061e-07)
    Sum of moments
        Total    : (-4.72876e-07 -3.07719e-07 0.000205308)
        Pressure : (-6.02443e-07 5.90303e-08 0.000191591)
        Viscous  : (1.29567e-07 -3.6675e-07 1.37166e-05)
    writing force and moment files.

Time = 218

smoothSolver:  Solving for Ux, Initial residual = 2.86749e-08, Final residual = 3.42658e-09, No Iterations 1
smoothSolver:  Solving for Uy, Initial residual = 1.8092e-06, Final residual = 2.49696e-08, No Iterations 2
smoothSolver:  Solving for Uz, Initial residual = 1.28444e-05, Final residual = 1.78042e-07, No Iterations 2
GAMG:  Solving for p, Initial residual = 1.3672e-05, Final residual = 7.95318e-07, No Iterations 2
time step continuity errors : sum local = 1.59879e-09, global = 9.83901e-10, cumulative = -3.09072e-08
smoothSolver:  Solving for omega, Initial residual = 8.28842e-09, Final residual = 8.28842e-09, No Iterations 0
smoothSolver:  Solving for k, Initial residual = 9.06477e-09, Final residual = 9.06477e-09, No Iterations 0
ExecutionTime = 134.85 s  ClockTime = 135 s

forces forcesFish write:
    Sum of forces
        Total    : (0.0244905 0.000622276 -1.9129e-06)
        Pressure : (0.00625497 0.000510722 -1.50564e-06)
        Viscous  : (0.0182356 0.000111554 -4.0726e-07)
    Sum of moments
        Total    : (-4.72767e-07 -2.94104e-07 0.000205303)
        Pressure : (-6.02302e-07 7.40813e-08 0.000191585)
        Viscous  : (1.29535e-07 -3.68185e-07 1.3718e-05)
    writing force and moment files.

Time = 219

smoothSolver:  Solving for Ux, Initial residual = 2.37727e-08, Final residual = 2.87708e-09, No Iterations 1
smoothSolver:  Solving for Uy, Initial residual = 1.67851e-06, Final residual = 2.28766e-08, No Iterations 2
smoothSolver:  Solving for Uz, Initial residual = 1.19923e-05, Final residual = 1.65214e-07, No Iterations 2
GAMG:  Solving for p, Initial residual = 1.30029e-05, Final residual = 7.86564e-07, No Iterations 2
time step continuity errors : sum local = 1.58119e-09, global = 9.39434e-10, cumulative = -2.99677e-08
smoothSolver:  Solving for omega, Initial residual = 8.57785e-09, Final residual = 8.57785e-09, No Iterations 0
smoothSolver:  Solving for k, Initial residual = 9.2359e-09, Final residual = 9.2359e-09, No Iterations 0
ExecutionTime = 135.38 s  ClockTime = 136 s

forces forcesFish write:
    Sum of forces
        Total    : (0.0244906 0.000622256 -1.98321e-06)
        Pressure : (0.00625505 0.000510698 -1.57956e-06)
        Viscous  : (0.0182356 0.000111558 -4.03658e-07)
    Sum of moments
        Total    : (-4.72311e-07 -2.67906e-07 0.000205298)
        Pressure : (-6.01814e-07 1.01648e-07 0.000191578)
        Viscous  : (1.29503e-07 -3.69554e-07 1.37193e-05)
    writing force and moment files.

Time = 220

smoothSolver:  Solving for Ux, Initial residual = 2.00041e-08, Final residual = 2.45247e-09, No Iterations 1
smoothSolver:  Solving for Uy, Initial residual = 1.55225e-06, Final residual = 2.08746e-08, No Iterations 2
smoothSolver:  Solving for Uz, Initial residual = 1.11466e-05, Final residual = 1.5266e-07, No Iterations 2
GAMG:  Solving for p, Initial residual = 1.23356e-05, Final residual = 7.65968e-07, No Iterations 2
time step continuity errors : sum local = 1.5398e-09, global = 8.69453e-10, cumulative = -2.90983e-08
smoothSolver:  Solving for omega, Initial residual = 8.85453e-09, Final residual = 8.85453e-09, No Iterations 0
smoothSolver:  Solving for k, Initial residual = 9.3872e-09, Final residual = 9.3872e-09, No Iterations 0
ExecutionTime = 135.93 s  ClockTime = 136 s

forces forcesFish write:
    Sum of forces
        Total    : (0.0244907 0.000622234 -2.08331e-06)
        Pressure : (0.00625511 0.000510673 -1.68312e-06)
        Viscous  : (0.0182355 0.000111561 -4.00192e-07)
    Sum of moments
        Total    : (-4.71554e-07 -2.30662e-07 0.000205291)
        Pressure : (-6.01027e-07 1.40221e-07 0.000191571)
        Viscous  : (1.29473e-07 -3.70882e-07 1.37204e-05)
    writing force and moment files.

Time = 221

smoothSolver:  Solving for Ux, Initial residual = 1.80243e-08, Final residual = 2.20776e-09, No Iterations 1
smoothSolver:  Solving for Uy, Initial residual = 1.43463e-06, Final residual = 1.90687e-08, No Iterations 2
smoothSolver:  Solving for Uz, Initial residual = 1.03324e-05, Final residual = 1.41139e-07, No Iterations 2
GAMG:  Solving for p, Initial residual = 1.16743e-05, Final residual = 7.34961e-07, No Iterations 2
time step continuity errors : sum local = 1.47747e-09, global = 7.78309e-10, cumulative = -2.832e-08
smoothSolver:  Solving for omega, Initial residual = 9.11447e-09, Final residual = 9.11447e-09, No Iterations 0
smoothSolver:  Solving for k, Initial residual = 9.51894e-09, Final residual = 9.51894e-09, No Iterations 0
ExecutionTime = 136.48 s  ClockTime = 137 s

forces forcesFish write:
    Sum of forces
        Total    : (0.0244907 0.00062221 -2.20958e-06)
        Pressure : (0.00625518 0.000510646 -1.81274e-06)
        Viscous  : (0.0182355 0.000111564 -3.96836e-07)
    Sum of moments
        Total    : (-4.70535e-07 -1.83704e-07 0.000205284)
        Pressure : (-5.99977e-07 1.88476e-07 0.000191562)
        Viscous  : (1.29443e-07 -3.7218e-07 1.37216e-05)
    writing force and moment files.

Time = 222

smoothSolver:  Solving for Ux, Initial residual = 1.72194e-08, Final residual = 2.09383e-09, No Iterations 1
smoothSolver:  Solving for Uy, Initial residual = 1.32898e-06, Final residual = 1.76674e-08, No Iterations 2
smoothSolver:  Solving for Uz, Initial residual = 9.55532e-06, Final residual = 1.30675e-07, No Iterations 2
GAMG:  Solving for p, Initial residual = 1.10157e-05, Final residual = 6.94194e-07, No Iterations 2
time step continuity errors : sum local = 1.39552e-09, global = 6.70085e-10, cumulative = -2.76499e-08
smoothSolver:  Solving for omega, Initial residual = 9.36642e-09, Final residual = 9.36642e-09, No Iterations 0
smoothSolver:  Solving for k, Initial residual = 9.63315e-09, Final residual = 9.63315e-09, No Iterations 0
ExecutionTime = 137.02 s  ClockTime = 137 s


SIMPLE solution converged in 222 iterations

forces forcesFish write:
    Sum of forces
        Total    : (0.0244908 0.000622186 -2.35889e-06)
        Pressure : (0.00625524 0.000510619 -1.96531e-06)
        Viscous  : (0.0182355 0.000111567 -3.9358e-07)
    Sum of moments
        Total    : (-4.69285e-07 -1.28183e-07 0.000205276)
        Pressure : (-5.98699e-07 2.45267e-07 0.000191554)
        Viscous  : (1.29414e-07 -3.73449e-07 1.37227e-05)
    writing force and moment files.

End

