/*---------------------------------------------------------------------------*\
| =========                 |                                                 |
| \\      /  F ield         | OpenFOAM: The Open Source CFD Toolbox           |
|  \\    /   O peration     | Version:  2512                                  |
|   \\  /    A nd           | Website:  www.openfoam.com                      |
|    \\/     M anipulation  |                                                 |
\*---------------------------------------------------------------------------*/
Build  : _bd2b6720-20260127 OPENFOAM=2512 version=2512
Arch   : "LSB;label=32;scalar=64"
Exec   : simpleFoam
Date   : Mar 29 2026
Time   : 11:59:32
Host   : mathias-laptop
PID    : 13086
I/O    : uncollated
Case   : /home/mat/OpenFOAM/mat-run/speed_sweep_runs/U_0p8
nProcs : 1
trapFpe: Floating point exception trapping enabled (FOAM_SIGFPE).
memory pool : not available
fileModificationChecking : Monitoring run-time modified files using timeStampMaster (fileModificationSkew 5, maxFileModificationPolls 20)
allowSystemOperations : Allowing user-supplied system call operations

// * * * * * * * * * * * * * * * * * * * * * * * * * * * * * * * * * * * * * //
Create time

Create mesh for time = 0


SIMPLE: convergence criteria
    field p	 tolerance 0.0001
    field U	 tolerance 1e-05
    field "(k|omega)"	 tolerance 1e-05

Reading field p

Reading field U

Reading/calculating face flux field phi

Selecting incompressible transport model Newtonian
Selecting turbulence model type RAS
Selecting RAS turbulence model kOmegaSST
Selecting patchDistMethod meshWave
RAS
{
    RASModel        kOmegaSST;
    turbulence      on;
    printCoeffs     on;
    alphaK1         0.85;
    alphaK2         1;
    alphaOmega1     0.5;
    alphaOmega2     0.856;
    gamma1          0.555556;
    gamma2          0.44;
    beta1           0.075;
    beta2           0.0828;
    betaStar        0.09;
    a1              0.31;
    b1              1;
    c1              10;
    F3              false;
    decayControl    false;
    kInf            0;
    omegaInf        0;
}

No MRF models present

No finite volume options present

Starting time loop

forces forcesFish:
    rho: rhoInf
    Freestream density (rhoInf) set to 1000
    Not including porosity effects

Time = 1

smoothSolver:  Solving for Ux, Initial residual = 1, Final residual = 0.090384, No Iterations 1
smoothSolver:  Solving for Uy, Initial residual = 1, Final residual = 0.0817488, No Iterations 2
smoothSolver:  Solving for Uz, Initial residual = 1, Final residual = 0.0819878, No Iterations 2
GAMG:  Solving for p, Initial residual = 1, Final residual = 0.0552701, No Iterations 5
time step continuity errors : sum local = 0.000526676, global = 8.0829e-05, cumulative = 8.0829e-05
smoothSolver:  Solving for omega, Initial residual = 0.00968292, Final residual = 0.000534015, No Iterations 2
smoothSolver:  Solving for k, Initial residual = 1, Final residual = 0.0164495, No Iterations 2
ExecutionTime = 4.23 s  ClockTime = 4 s

forces forcesFish write:
    Sum of forces
        Total    : (1.02359 -0.000274338 -0.00115147)
        Pressure : (0.834492 -0.000273145 -0.00114947)
        Viscous  : (0.189093 -1.19268e-06 -2.00637e-06)
    Sum of moments
        Total    : (1.25652e-07 0.000236617 9.63635e-05)
        Pressure : (1.26381e-07 0.000235643 9.7162e-05)
        Viscous  : (-7.29689e-10 9.73195e-07 -7.98467e-07)
    writing force and moment files.

Time = 2

smoothSolver:  Solving for Ux, Initial residual = 0.174767, Final residual = 0.0102541, No Iterations 2
smoothSolver:  Solving for Uy, Initial residual = 0.441337, Final residual = 0.0419869, No Iterations 2
smoothSolver:  Solving for Uz, Initial residual = 0.440744, Final residual = 0.0419389, No Iterations 2
GAMG:  Solving for p, Initial residual = 0.184703, Final residual = 0.0101767, No Iterations 3
time step continuity errors : sum local = 0.000840562, global = -0.000144063, cumulative = -6.32336e-05
smoothSolver:  Solving for omega, Initial residual = 0.000875699, Final residual = 3.35104e-05, No Iterations 2
smoothSolver:  Solving for k, Initial residual = 0.204562, Final residual = 0.00292693, No Iterations 2
ExecutionTime = 5.49 s  ClockTime = 5 s

forces forcesFish write:
    Sum of forces
        Total    : (1.05239 -0.000417399 -0.00139475)
        Pressure : (0.876006 -0.000418187 -0.0013899)
        Viscous  : (0.176386 7.87784e-07 -4.84693e-06)
    Sum of moments
        Total    : (1.22036e-07 0.00033923 2.02443e-05)
        Pressure : (1.28662e-07 0.000337595 2.10076e-05)
        Viscous  : (-6.62573e-09 1.63474e-06 -7.63294e-07)
    writing force and moment files.

Time = 3

smoothSolver:  Solving for Ux, Initial residual = 0.0387533, Final residual = 0.0021367, No Iterations 2
smoothSolver:  Solving for Uy, Initial residual = 0.275271, Final residual = 0.0246946, No Iterations 2
smoothSolver:  Solving for Uz, Initial residual = 0.273411, Final residual = 0.024568, No Iterations 2
GAMG:  Solving for p, Initial residual = 0.34033, Final residual = 0.0159022, No Iterations 3
time step continuity errors : sum local = 0.00140386, global = 4.42379e-05, cumulative = -1.89957e-05
smoothSolver:  Solving for omega, Initial residual = 0.000543643, Final residual = 2.63792e-05, No Iterations 2
smoothSolver:  Solving for k, Initial residual = 0.101691, Final residual = 0.00152705, No Iterations 2
ExecutionTime = 6.78 s  ClockTime = 6 s

forces forcesFish write:
    Sum of forces
        Total    : (0.873675 -0.000228266 -0.000352997)
        Pressure : (0.707243 -0.000230334 -0.000348424)
        Viscous  : (0.166431 2.06766e-06 -4.57353e-06)
    Sum of moments
        Total    : (1.00595e-07 0.000181198 7.62672e-05)
        Pressure : (1.08351e-07 0.000179481 7.72321e-05)
        Viscous  : (-7.75589e-09 1.71742e-06 -9.64817e-07)
    writing force and moment files.

Time = 4

smoothSolver:  Solving for Ux, Initial residual = 0.0208607, Final residual = 0.00107214, No Iterations 2
smoothSolver:  Solving for Uy, Initial residual = 0.17073, Final residual = 0.0145652, No Iterations 2
smoothSolver:  Solving for Uz, Initial residual = 0.170186, Final residual = 0.0145376, No Iterations 2
GAMG:  Solving for p, Initial residual = 0.443164, Final residual = 0.0295203, No Iterations 3
time step continuity errors : sum local = 0.0024624, global = 0.000252192, cumulative = 0.000233196
smoothSolver:  Solving for omega, Initial residual = 0.000463307, Final residual = 2.39281e-05, No Iterations 2
smoothSolver:  Solving for k, Initial residual = 0.0662404, Final residual = 0.000999621, No Iterations 2
ExecutionTime = 8.07 s  ClockTime = 8 s

forces forcesFish write:
    Sum of forces
        Total    : (0.60239 0.000108832 0.0012228)
        Pressure : (0.443843 0.000107412 0.00122584)
        Viscous  : (0.158548 1.42009e-06 -3.03779e-06)
    Sum of moments
        Total    : (6.23956e-08 -0.00010408 0.000157584)
        Pressure : (6.40176e-08 -0.000105402 0.000158779)
        Viscous  : (-1.62198e-09 1.32152e-06 -1.19479e-06)
    writing force and moment files.

Time = 5

smoothSolver:  Solving for Ux, Initial residual = 0.0129992, Final residual = 0.000574463, No Iterations 2
smoothSolver:  Solving for Uy, Initial residual = 0.094232, Final residual = 0.00746951, No Iterations 2
smoothSolver:  Solving for Uz, Initial residual = 0.0954542, Final residual = 0.00753717, No Iterations 2
GAMG:  Solving for p, Initial residual = 0.503636, Final residual = 0.0410468, No Iterations 3
time step continuity errors : sum local = 0.00283469, global = 0.000431371, cumulative = 0.000664567
smoothSolver:  Solving for omega, Initial residual = 0.000409249, Final residual = 2.1144e-05, No Iterations 2
smoothSolver:  Solving for k, Initial residual = 0.0489747, Final residual = 0.000731496, No Iterations 2
ExecutionTime = 9.39 s  ClockTime = 9 s

forces forcesFish write:
    Sum of forces
        Total    : (0.327799 0.000461195 0.00247117)
        Pressure : (0.175508 0.000461996 0.00247205)
        Viscous  : (0.152291 -8.00923e-07 -8.75635e-07)
    Sum of moments
        Total    : (1.38458e-08 -0.000370132 0.000205013)
        Pressure : (6.05879e-09 -0.000370649 0.000206464)
        Viscous  : (7.787e-09 5.16679e-07 -1.45125e-06)
    writing force and moment files.

Time = 6

smoothSolver:  Solving for Ux, Initial residual = 0.00833754, Final residual = 0.000280131, No Iterations 2
smoothSolver:  Solving for Uy, Initial residual = 0.0541384, Final residual = 0.00219576, No Iterations 2
smoothSolver:  Solving for Uz, Initial residual = 0.0545192, Final residual = 0.00224859, No Iterations 2
GAMG:  Solving for p, Initial residual = 0.239923, Final residual = 0.021621, No Iterations 3
time step continuity errors : sum local = 0.00244579, global = 0.000467617, cumulative = 0.00113218
smoothSolver:  Solving for omega, Initial residual = 0.000335894, Final residual = 1.6645e-05, No Iterations 2
smoothSolver:  Solving for k, Initial residual = 0.0393846, Final residual = 0.000597084, No Iterations 2
ExecutionTime = 10.7 s  ClockTime = 10 s

forces forcesFish write:
    Sum of forces
        Total    : (0.110555 0.000719835 0.00279983)
        Pressure : (-0.0367174 0.000723351 0.00279894)
        Viscous  : (0.147273 -3.51639e-06 8.95191e-07)
    Sum of moments
        Total    : (-3.23368e-08 -0.000520748 0.000198047)
        Pressure : (-4.82384e-08 -0.000520401 0.00019955)
        Viscous  : (1.59016e-08 -3.47304e-07 -1.50323e-06)
    writing force and moment files.

Time = 7

smoothSolver:  Solving for Ux, Initial residual = 0.00534789, Final residual = 0.000207046, No Iterations 2
smoothSolver:  Solving for Uy, Initial residual = 0.0721843, Final residual = 0.00454051, No Iterations 2
smoothSolver:  Solving for Uz, Initial residual = 0.0697364, Final residual = 0.00436816, No Iterations 2
GAMG:  Solving for p, Initial residual = 0.126617, Final residual = 0.0103342, No Iterations 3
time step continuity errors : sum local = 0.00165609, global = 0.000199125, cumulative = 0.00133131
smoothSolver:  Solving for omega, Initial residual = 0.000277798, Final residual = 1.27397e-05, No Iterations 2
smoothSolver:  Solving for k, Initial residual = 0.0336649, Final residual = 0.000540922, No Iterations 2
ExecutionTime = 11.99 s  ClockTime = 12 s

forces forcesFish write:
    Sum of forces
        Total    : (-0.0207513 0.000790777 0.00202722)
        Pressure : (-0.163903 0.000796482 0.00202567)
        Viscous  : (0.143152 -5.70506e-06 1.55088e-06)
    Sum of moments
        Total    : (-6.20025e-08 -0.000506791 0.000132381)
        Pressure : (-8.27751e-08 -0.000505817 0.000133655)
        Viscous  : (2.07726e-08 -9.73978e-07 -1.27324e-06)
    writing force and moment files.

Time = 8

smoothSolver:  Solving for Ux, Initial residual = 0.00556981, Final residual = 0.000249239, No Iterations 2
smoothSolver:  Solving for Uy, Initial residual = 0.106557, Final residual = 0.00771561, No Iterations 2
smoothSolver:  Solving for Uz, Initial residual = 0.103686, Final residual = 0.00750844, No Iterations 2
GAMG:  Solving for p, Initial residual = 0.0997021, Final residual = 0.00898754, No Iterations 2
time step continuity errors : sum local = 0.00184541, global = 0.000372681, cumulative = 0.00170399
smoothSolver:  Solving for omega, Initial residual = 0.000238676, Final residual = 1.01788e-05, No Iterations 2
smoothSolver:  Solving for k, Initial residual = 0.0297313, Final residual = 0.000498979, No Iterations 2
ExecutionTime = 13.26 s  ClockTime = 13 s

forces forcesFish write:
    Sum of forces
        Total    : (-0.059933 0.000877265 0.00112029)
        Pressure : (-0.199563 0.000883775 0.00111896)
        Viscous  : (0.13963 -6.51026e-06 1.32546e-06)
    Sum of moments
        Total    : (-7.18451e-08 -0.000402918 0.000124385)
        Pressure : (-9.42295e-08 -0.000401675 0.000125253)
        Viscous  : (2.23845e-08 -1.24298e-06 -8.67545e-07)
    writing force and moment files.

Time = 9

smoothSolver:  Solving for Ux, Initial residual = 0.00571243, Final residual = 0.000256068, No Iterations 2
smoothSolver:  Solving for Uy, Initial residual = 0.115523, Final residual = 0.00850911, No Iterations 2
smoothSolver:  Solving for Uz, Initial residual = 0.114324, Final residual = 0.0083752, No Iterations 2
GAMG:  Solving for p, Initial residual = 0.118317, Final residual = 0.0103578, No Iterations 2
time step continuity errors : sum local = 0.00224047, global = 0.000422571, cumulative = 0.00212656
smoothSolver:  Solving for omega, Initial residual = 0.000204451, Final residual = 8.46258e-06, No Iterations 2
smoothSolver:  Solving for k, Initial residual = 0.0267137, Final residual = 0.000462148, No Iterations 2
ExecutionTime = 14.48 s  ClockTime = 14 s

forces forcesFish write:
    Sum of forces
        Total    : (-0.0386672 0.000910248 -1.92873e-05)
        Pressure : (-0.175122 0.000916524 -1.95759e-05)
        Viscous  : (0.136455 -6.2756e-06 2.88606e-07)
    Sum of moments
        Total    : (-6.79627e-08 -0.000227572 9.4363e-05)
        Pressure : (-8.89156e-08 -0.000226451 9.4839e-05)
        Viscous  : (2.09528e-08 -1.12014e-06 -4.75998e-07)
    writing force and moment files.

Time = 10

smoothSolver:  Solving for Ux, Initial residual = 0.0051862, Final residual = 0.000224315, No Iterations 2
smoothSolver:  Solving for Uy, Initial residual = 0.099071, Final residual = 0.00724178, No Iterations 2
smoothSolver:  Solving for Uz, Initial residual = 0.100899, Final residual = 0.00727436, No Iterations 2
GAMG:  Solving for p, Initial residual = 0.12964, Final residual = 0.0127775, No Iterations 2
time step continuity errors : sum local = 0.00272882, global = 0.000276222, cumulative = 0.00240278
smoothSolver:  Solving for omega, Initial residual = 0.00017726, Final residual = 7.42193e-06, No Iterations 2
smoothSolver:  Solving for k, Initial residual = 0.0241942, Final residual = 0.00042918, No Iterations 2
ExecutionTime = 15.8 s  ClockTime = 15 s

forces forcesFish write:
    Sum of forces
        Total    : (0.0147287 0.000849899 -0.00122178)
        Pressure : (-0.118739 0.000855193 -0.00122019)
        Viscous  : (0.133468 -5.29459e-06 -1.59729e-06)
    Sum of moments
        Total    : (-4.84968e-08 -1.89562e-05 5.41288e-05)
        Pressure : (-6.68481e-08 -1.8317e-05 5.43653e-05)
        Viscous  : (1.83513e-08 -6.39114e-07 -2.36505e-07)
    writing force and moment files.

Time = 11

smoothSolver:  Solving for Ux, Initial residual = 0.00457084, Final residual = 0.000176935, No Iterations 2
smoothSolver:  Solving for Uy, Initial residual = 0.0688941, Final residual = 0.00480991, No Iterations 2
smoothSolver:  Solving for Uz, Initial residual = 0.0731261, Final residual = 0.00502617, No Iterations 2
GAMG:  Solving for p, Initial residual = 0.127206, Final residual = 0.00562347, No Iterations 3
time step continuity errors : sum local = 0.0011419, global = -3.68704e-05, cumulative = 0.00236591
smoothSolver:  Solving for omega, Initial residual = 0.000157566, Final residual = 6.78617e-06, No Iterations 2
smoothSolver:  Solving for k, Initial residual = 0.0220072, Final residual = 0.00039991, No Iterations 2
ExecutionTime = 17.11 s  ClockTime = 17 s

forces forcesFish write:
    Sum of forces
        Total    : (0.0837402 0.000309979 -0.00204347)
        Pressure : (-0.0468488 0.000313872 -0.00203982)
        Viscous  : (0.130589 -3.89339e-06 -3.6481e-06)
    Sum of moments
        Total    : (-1.161e-08 0.000178768 -3.85094e-05)
        Pressure : (-2.79342e-08 0.000178726 -3.83374e-05)
        Viscous  : (1.63242e-08 4.24712e-08 -1.71997e-07)
    writing force and moment files.

Time = 12

smoothSolver:  Solving for Ux, Initial residual = 0.00395559, Final residual = 0.000123927, No Iterations 2
smoothSolver:  Solving for Uy, Initial residual = 0.0472448, Final residual = 0.00231386, No Iterations 2
smoothSolver:  Solving for Uz, Initial residual = 0.0497336, Final residual = 0.00240565, No Iterations 2
GAMG:  Solving for p, Initial residual = 0.116053, Final residual = 0.00557721, No Iterations 3
time step continuity errors : sum local = 0.00102153, global = -0.000198756, cumulative = 0.00216716
smoothSolver:  Solving for omega, Initial residual = 0.00014273, Final residual = 6.19988e-06, No Iterations 2
smoothSolver:  Solving for k, Initial residual = 0.0200768, Final residual = 0.000372637, No Iterations 2
ExecutionTime = 18.41 s  ClockTime = 18 s

forces forcesFish write:
    Sum of forces
        Total    : (0.145101 -0.000262568 -0.0021715)
        Pressure : (0.0173094 -0.000260539 -0.00216661)
        Viscous  : (0.127791 -2.0295e-06 -4.88862e-06)
    Sum of moments
        Total    : (2.26635e-08 0.000298729 -0.000107252)
        Pressure : (7.92777e-09 0.000298069 -0.000107107)
        Viscous  : (1.47358e-08 6.60037e-07 -1.44663e-07)
    writing force and moment files.

Time = 13

smoothSolver:  Solving for Ux, Initial residual = 0.00323106, Final residual = 9.22791e-05, No Iterations 2
smoothSolver:  Solving for Uy, Initial residual = 0.0520319, Final residual = 0.00256987, No Iterations 2
smoothSolver:  Solving for Uz, Initial residual = 0.0530822, Final residual = 0.00254788, No Iterations 2
GAMG:  Solving for p, Initial residual = 0.106005, Final residual = 0.0103623, No Iterations 2
time step continuity errors : sum local = 0.00163993, global = -0.000322771, cumulative = 0.00184439
smoothSolver:  Solving for omega, Initial residual = 0.000132548, Final residual = 5.62775e-06, No Iterations 2
smoothSolver:  Solving for k, Initial residual = 0.0183174, Final residual = 0.000345705, No Iterations 2
ExecutionTime = 19.66 s  ClockTime = 19 s

forces forcesFish write:
    Sum of forces
        Total    : (0.183828 -0.000534879 -0.00199648)
        Pressure : (0.058711 -0.000534734 -0.00199105)
        Viscous  : (0.125117 -1.44429e-07 -5.42271e-06)
    Sum of moments
        Total    : (4.72642e-08 0.00034602 -0.000132262)
        Pressure : (3.34451e-08 0.000344893 -0.000132113)
        Viscous  : (1.38191e-08 1.12736e-06 -1.49523e-07)
    writing force and moment files.

Time = 14

smoothSolver:  Solving for Ux, Initial residual = 0.00261708, Final residual = 8.35283e-05, No Iterations 2
smoothSolver:  Solving for Uy, Initial residual = 0.0595081, Final residual = 0.00336983, No Iterations 2
smoothSolver:  Solving for Uz, Initial residual = 0.0607757, Final residual = 0.00335421, No Iterations 2
GAMG:  Solving for p, Initial residual = 0.113154, Final residual = 0.00961755, No Iterations 2
time step continuity errors : sum local = 0.0013442, global = -0.000164742, cumulative = 0.00167964
smoothSolver:  Solving for omega, Initial residual = 0.00012308, Final residual = 5.26547e-06, No Iterations 2
smoothSolver:  Solving for k, Initial residual = 0.0166821, Final residual = 0.000319457, No Iterations 2
ExecutionTime = 20.96 s  ClockTime = 21 s

forces forcesFish write:
    Sum of forces
        Total    : (0.204288 -0.000858842 -0.0012566)
        Pressure : (0.0816457 -0.000860022 -0.00125134)
        Viscous  : (0.122642 1.17991e-06 -5.26491e-06)
    Sum of moments
        Total    : (6.31349e-08 0.00031808 -0.000152957)
        Pressure : (4.9235e-08 0.000316678 -0.000152779)
        Viscous  : (1.38999e-08 1.40244e-06 -1.77824e-07)
    writing force and moment files.

Time = 15

smoothSolver:  Solving for Ux, Initial residual = 0.00202542, Final residual = 7.33103e-05, No Iterations 2
smoothSolver:  Solving for Uy, Initial residual = 0.0586679, Final residual = 0.00344129, No Iterations 2
smoothSolver:  Solving for Uz, Initial residual = 0.0611292, Final residual = 0.00351328, No Iterations 2
GAMG:  Solving for p, Initial residual = 0.149478, Final residual = 0.0108696, No Iterations 2
time step continuity errors : sum local = 0.0012676, global = -8.35211e-06, cumulative = 0.00167129
smoothSolver:  Solving for omega, Initial residual = 0.000112732, Final residual = 4.86873e-06, No Iterations 2
smoothSolver:  Solving for k, Initial residual = 0.0151734, Final residual = 0.000295337, No Iterations 2
ExecutionTime = 22.2 s  ClockTime = 22 s

forces forcesFish write:
    Sum of forces
        Total    : (0.206204 -0.00106106 -0.000290542)
        Pressure : (0.0858025 -0.00106258 -0.000286088)
        Viscous  : (0.120402 1.52128e-06 -4.45369e-06)
    Sum of moments
        Total    : (6.96749e-08 0.000226537 -0.000154572)
        Pressure : (5.49033e-08 0.000225087 -0.000154291)
        Viscous  : (1.47716e-08 1.44924e-06 -2.80198e-07)
    writing force and moment files.

Time = 16

smoothSolver:  Solving for Ux, Initial residual = 0.00179629, Final residual = 6.78373e-05, No Iterations 2
smoothSolver:  Solving for Uy, Initial residual = 0.0498471, Final residual = 0.00282678, No Iterations 2
smoothSolver:  Solving for Uz, Initial residual = 0.0535, Final residual = 0.00299227, No Iterations 2
GAMG:  Solving for p, Initial residual = 0.17815, Final residual = 0.0117338, No Iterations 2
time step continuity errors : sum local = 0.00118618, global = -0.000269527, cumulative = 0.00140176
smoothSolver:  Solving for omega, Initial residual = 0.000102811, Final residual = 4.6172e-06, No Iterations 2
smoothSolver:  Solving for k, Initial residual = 0.0137877, Final residual = 0.000274273, No Iterations 2
ExecutionTime = 23.44 s  ClockTime = 23 s

forces forcesFish write:
    Sum of forces
        Total    : (0.195144 -0.00100547 0.000380237)
        Pressure : (0.0767173 -0.00100648 0.000383597)
        Viscous  : (0.118427 1.01406e-06 -3.3598e-06)
    Sum of moments
        Total    : (6.75716e-08 0.000125701 -0.00012958)
        Pressure : (5.1655e-08 0.000124377 -0.000129136)
        Viscous  : (1.59166e-08 1.32385e-06 -4.43514e-07)
    writing force and moment files.

Time = 17

smoothSolver:  Solving for Ux, Initial residual = 0.00166295, Final residual = 6.12836e-05, No Iterations 2
smoothSolver:  Solving for Uy, Initial residual = 0.0377178, Final residual = 0.00194446, No Iterations 2
smoothSolver:  Solving for Uz, Initial residual = 0.0416558, Final residual = 0.00215302, No Iterations 2
GAMG:  Solving for p, Initial residual = 0.172586, Final residual = 0.0133021, No Iterations 2
time step continuity errors : sum local = 0.00132612, global = -0.000246121, cumulative = 0.00115564
smoothSolver:  Solving for omega, Initial residual = 9.23915e-05, Final residual = 4.32046e-06, No Iterations 2
smoothSolver:  Solving for k, Initial residual = 0.0125339, Final residual = 0.000255853, No Iterations 2
ExecutionTime = 24.71 s  ClockTime = 24 s

forces forcesFish write:
    Sum of forces
        Total    : (0.178813 -0.000813572 0.000844315)
        Pressure : (0.0621192 -0.000813512 0.000846544)
        Viscous  : (0.116694 -6.00629e-08 -2.22889e-06)
    Sum of moments
        Total    : (5.78149e-08 2.92406e-05 -9.34716e-05)
        Pressure : (4.10599e-08 2.81439e-05 -9.2849e-05)
        Viscous  : (1.6755e-08 1.09668e-06 -6.22598e-07)
    writing force and moment files.

Time = 18

smoothSolver:  Solving for Ux, Initial residual = 0.00155419, Final residual = 5.42638e-05, No Iterations 2
smoothSolver:  Solving for Uy, Initial residual = 0.0282285, Final residual = 0.00114191, No Iterations 2
smoothSolver:  Solving for Uz, Initial residual = 0.0312676, Final residual = 0.00130592, No Iterations 2
GAMG:  Solving for p, Initial residual = 0.150396, Final residual = 0.0120542, No Iterations 2
time step continuity errors : sum local = 0.00123559, global = -0.000135203, cumulative = 0.00102044
smoothSolver:  Solving for omega, Initial residual = 8.33372e-05, Final residual = 4.00752e-06, No Iterations 2
smoothSolver:  Solving for k, Initial residual = 0.0113976, Final residual = 0.000239389, No Iterations 2
ExecutionTime = 25.95 s  ClockTime = 26 s

forces forcesFish write:
    Sum of forces
        Total    : (0.162077 -0.000524779 0.00108544)
        Pressure : (0.0468985 -0.000523413 0.0010867)
        Viscous  : (0.115179 -1.36585e-06 -1.25802e-06)
    Sum of moments
        Total    : (4.30764e-08 -5.26534e-05 -5.08549e-05)
        Pressure : (2.61034e-08 -5.34827e-05 -5.00786e-05)
        Viscous  : (1.69729e-08 8.29322e-07 -7.76346e-07)
    writing force and moment files.

Time = 19

smoothSolver:  Solving for Ux, Initial residual = 0.00144648, Final residual = 4.78166e-05, No Iterations 2
smoothSolver:  Solving for Uy, Initial residual = 0.0240728, Final residual = 0.000846675, No Iterations 2
smoothSolver:  Solving for Uz, Initial residual = 0.0261764, Final residual = 0.000866758, No Iterations 2
GAMG:  Solving for p, Initial residual = 0.122131, Final residual = 0.00924231, No Iterations 2
time step continuity errors : sum local = 0.000993647, global = 5.96727e-06, cumulative = 0.00102641
smoothSolver:  Solving for omega, Initial residual = 7.65831e-05, Final residual = 3.73751e-06, No Iterations 2
smoothSolver:  Solving for k, Initial residual = 0.0103632, Final residual = 0.00022424, No Iterations 2
ExecutionTime = 27.2 s  ClockTime = 27 s

forces forcesFish write:
    Sum of forces
        Total    : (0.148204 -0.000178558 0.00108952)
        Pressure : (0.03436 -0.000175965 0.00109012)
        Viscous  : (0.113844 -2.59302e-06 -5.98264e-07)
    Sum of moments
        Total    : (2.66193e-08 -0.000110926 -5.93269e-06)
        Pressure : (1.00619e-08 -0.000111501 -5.05074e-06)
        Viscous  : (1.65574e-08 5.75804e-07 -8.81959e-07)
    writing force and moment files.

Time = 20

smoothSolver:  Solving for Ux, Initial residual = 0.00135078, Final residual = 4.30748e-05, No Iterations 2
smoothSolver:  Solving for Uy, Initial residual = 0.0236751, Final residual = 0.00101294, No Iterations 2
smoothSolver:  Solving for Uz, Initial residual = 0.0252291, Final residual = 0.00100996, No Iterations 2
GAMG:  Solving for p, Initial residual = 0.0973289, Final residual = 0.00603787, No Iterations 2
time step continuity errors : sum local = 0.000675662, global = 0.000111862, cumulative = 0.00113827
smoothSolver:  Solving for omega, Initial residual = 7.11646e-05, Final residual = 3.52495e-06, No Iterations 2
smoothSolver:  Solving for k, Initial residual = 0.00941517, Final residual = 0.000209979, No Iterations 2
ExecutionTime = 28.51 s  ClockTime = 28 s

forces forcesFish write:
    Sum of forces
        Total    : (0.13859 0.000192076 0.00087877)
        Pressure : (0.0259411 0.000195583 0.000879092)
        Viscous  : (0.112649 -3.50628e-06 -3.22025e-07)
    Sum of moments
        Total    : (1.13764e-08 -0.00014426 3.75398e-05)
        Pressure : (-4.3175e-09 -0.000144629 3.84727e-05)
        Viscous  : (1.56939e-08 3.69001e-07 -9.32873e-07)
    writing force and moment files.

Time = 21

smoothSolver:  Solving for Ux, Initial residual = 0.00120766, Final residual = 3.89409e-05, No Iterations 2
smoothSolver:  Solving for Uy, Initial residual = 0.0235313, Final residual = 0.0011263, No Iterations 2
smoothSolver:  Solving for Uz, Initial residual = 0.0252295, Final residual = 0.00115447, No Iterations 2
GAMG:  Solving for p, Initial residual = 0.0818151, Final residual = 0.00597516, No Iterations 2
time step continuity errors : sum local = 0.000699423, global = 8.23264e-06, cumulative = 0.0011465
smoothSolver:  Solving for omega, Initial residual = 6.6321e-05, Final residual = 3.35418e-06, No Iterations 2
smoothSolver:  Solving for k, Initial residual = 0.00854307, Final residual = 0.00019656, No Iterations 2
ExecutionTime = 29.78 s  ClockTime = 29 s

forces forcesFish write:
    Sum of forces
        Total    : (0.133105 0.000577962 0.000458238)
        Pressure : (0.0215504 0.000581912 0.000458681)
        Viscous  : (0.111555 -3.9507e-06 -4.43372e-07)
    Sum of moments
        Total    : (-3.77492e-10 -0.000154063 7.67997e-05)
        Pressure : (-1.50179e-08 -0.000154282 7.77355e-05)
        Viscous  : (1.46404e-08 2.18399e-07 -9.35841e-07)
    writing force and moment files.

Time = 22

smoothSolver:  Solving for Ux, Initial residual = 0.000941099, Final residual = 3.31084e-05, No Iterations 2
smoothSolver:  Solving for Uy, Initial residual = 0.023319, Final residual = 0.00113718, No Iterations 2
smoothSolver:  Solving for Uz, Initial residual = 0.0250346, Final residual = 0.00119482, No Iterations 2
GAMG:  Solving for p, Initial residual = 0.073804, Final residual = 0.00489383, No Iterations 2
time step continuity errors : sum local = 0.000621328, global = -5.46684e-05, cumulative = 0.00109183
smoothSolver:  Solving for omega, Initial residual = 6.17131e-05, Final residual = 3.19751e-06, No Iterations 2
smoothSolver:  Solving for k, Initial residual = 0.00774327, Final residual = 0.000184023, No Iterations 2
ExecutionTime = 31.03 s  ClockTime = 31 s

forces forcesFish write:
    Sum of forces
        Total    : (0.131757 0.000789458 2.89151e-05)
        Pressure : (0.0212242 0.000793401 2.97444e-05)
        Viscous  : (0.110533 -3.9438e-06 -8.29274e-07)
    Sum of moments
        Total    : (-7.55651e-09 -0.000134641 9.66118e-05)
        Pressure : (-2.11984e-08 -0.000134766 9.75158e-05)
        Viscous  : (1.36419e-08 1.25e-07 -9.03938e-07)
    writing force and moment files.

Time = 23

smoothSolver:  Solving for Ux, Initial residual = 0.000795613, Final residual = 2.96876e-05, No Iterations 2
smoothSolver:  Solving for Uy, Initial residual = 0.0211304, Final residual = 0.000955985, No Iterations 2
smoothSolver:  Solving for Uz, Initial residual = 0.0230841, Final residual = 0.00104258, No Iterations 2
GAMG:  Solving for p, Initial residual = 0.068386, Final residual = 0.00349467, No Iterations 2
time step continuity errors : sum local = 0.000470893, global = 3.90998e-05, cumulative = 0.00113093
smoothSolver:  Solving for omega, Initial residual = 5.69438e-05, Final residual = 3.03873e-06, No Iterations 2
smoothSolver:  Solving for k, Initial residual = 0.00701064, Final residual = 0.000172206, No Iterations 2
ExecutionTime = 32.29 s  ClockTime = 32 s

forces forcesFish write:
    Sum of forces
        Total    : (0.133167 0.000769667 -0.000244785)
        Pressure : (0.023612 0.000773299 -0.00024349)
        Viscous  : (0.109555 -3.63195e-06 -1.29534e-06)
    Sum of moments
        Total    : (-1.01726e-08 -9.8929e-05 9.15521e-05)
        Pressure : (-2.31788e-08 -9.90211e-05 9.24025e-05)
        Viscous  : (1.30062e-08 9.21067e-08 -8.50425e-07)
    writing force and moment files.

Time = 24

smoothSolver:  Solving for Ux, Initial residual = 0.000686371, Final residual = 2.6741e-05, No Iterations 2
smoothSolver:  Solving for Uy, Initial residual = 0.0176212, Final residual = 0.000703449, No Iterations 2
smoothSolver:  Solving for Uz, Initial residual = 0.0195322, Final residual = 0.000790682, No Iterations 2
GAMG:  Solving for p, Initial residual = 0.0639707, Final residual = 0.00338287, No Iterations 2
time step continuity errors : sum local = 0.000462747, global = 7.92497e-05, cumulative = 0.00121018
smoothSolver:  Solving for omega, Initial residual = 5.27675e-05, Final residual = 2.88938e-06, No Iterations 2
smoothSolver:  Solving for k, Initial residual = 0.00633847, Final residual = 0.000161102, No Iterations 2
ExecutionTime = 33.55 s  ClockTime = 33 s

forces forcesFish write:
    Sum of forces
        Total    : (0.13561 0.000603596 -0.000367323)
        Pressure : (0.0269932 0.000606767 -0.000365634)
        Viscous  : (0.108617 -3.17115e-06 -1.68885e-06)
    Sum of moments
        Total    : (-8.62502e-09 -6.04265e-05 6.93098e-05)
        Pressure : (-2.1565e-08 -6.05269e-05 7.01054e-05)
        Viscous  : (1.294e-08 1.00325e-07 -7.95608e-07)
    writing force and moment files.

Time = 25

smoothSolver:  Solving for Ux, Initial residual = 0.000625125, Final residual = 2.46305e-05, No Iterations 2
smoothSolver:  Solving for Uy, Initial residual = 0.0146998, Final residual = 0.000531069, No Iterations 2
smoothSolver:  Solving for Uz, Initial residual = 0.0163486, Final residual = 0.000580863, No Iterations 2
GAMG:  Solving for p, Initial residual = 0.060313, Final residual = 0.00335734, No Iterations 2
time step continuity errors : sum local = 0.000456254, global = 5.95121e-05, cumulative = 0.0012697
smoothSolver:  Solving for omega, Initial residual = 4.94118e-05, Final residual = 2.74942e-06, No Iterations 2
smoothSolver:  Solving for k, Initial residual = 0.00572416, Final residual = 0.00015082, No Iterations 2
ExecutionTime = 34.81 s  ClockTime = 34 s

forces forcesFish write:
    Sum of forces
        Total    : (0.137925 0.000367943 -0.000380583)
        Pressure : (0.0302081 0.000370632 -0.000378665)
        Viscous  : (0.107717 -2.68937e-06 -1.91816e-06)
    Sum of moments
        Total    : (-3.89005e-09 -2.43388e-05 3.85578e-05)
        Pressure : (-1.72544e-08 -2.4468e-05 3.93111e-05)
        Viscous  : (1.33643e-08 1.29145e-07 -7.53283e-07)
    writing force and moment files.

Time = 26

smoothSolver:  Solving for Ux, Initial residual = 0.000591719, Final residual = 2.31314e-05, No Iterations 2
smoothSolver:  Solving for Uy, Initial residual = 0.0125108, Final residual = 0.000438923, No Iterations 2
smoothSolver:  Solving for Uz, Initial residual = 0.0139692, Final residual = 0.000469436, No Iterations 2
GAMG:  Solving for p, Initial residual = 0.0543474, Final residual = 0.00292931, No Iterations 2
time step continuity errors : sum local = 0.00039265, global = 1.0869e-05, cumulative = 0.00128056
smoothSolver:  Solving for omega, Initial residual = 4.63924e-05, Final residual = 2.61691e-06, No Iterations 2
smoothSolver:  Solving for k, Initial residual = 0.00516391, Final residual = 0.000141336, No Iterations 2
ExecutionTime = 36.06 s  ClockTime = 36 s

forces forcesFish write:
    Sum of forces
        Total    : (0.139463 0.000112924 -0.000319356)
        Pressure : (0.032611 0.000115213 -0.000317401)
        Viscous  : (0.106852 -2.28904e-06 -1.95527e-06)
    Sum of moments
        Total    : (2.69679e-09 6.79792e-06 5.48508e-06)
        Pressure : (-1.13784e-08 6.63298e-06 6.21368e-06)
        Viscous  : (1.40752e-08 1.64944e-07 -7.28595e-07)
    writing force and moment files.

Time = 27

smoothSolver:  Solving for Ux, Initial residual = 0.000571871, Final residual = 2.21201e-05, No Iterations 2
smoothSolver:  Solving for Uy, Initial residual = 0.0107398, Final residual = 0.000404718, No Iterations 2
smoothSolver:  Solving for Uz, Initial residual = 0.0120602, Final residual = 0.000413998, No Iterations 2
GAMG:  Solving for p, Initial residual = 0.0477707, Final residual = 0.0021111, No Iterations 2
time step continuity errors : sum local = 0.000278721, global = -3.67147e-05, cumulative = 0.00124385
smoothSolver:  Solving for omega, Initial residual = 4.3553e-05, Final residual = 2.49362e-06, No Iterations 2
smoothSolver:  Solving for k, Initial residual = 0.00465475, Final residual = 0.000132628, No Iterations 2
ExecutionTime = 37.3 s  ClockTime = 37 s

forces forcesFish write:
    Sum of forces
        Total    : (0.140004 -0.000129261 -0.000212023)
        Pressure : (0.0339788 -0.000127214 -0.000210202)
        Viscous  : (0.106025 -2.0466e-06 -1.8216e-06)
    Sum of moments
        Total    : (9.75357e-09 3.22671e-05 -2.50685e-05)
        Pressure : (-5.10132e-09 3.20662e-05 -2.43453e-05)
        Viscous  : (1.48549e-08 2.00953e-07 -7.23244e-07)
    writing force and moment files.

Time = 28

smoothSolver:  Solving for Ux, Initial residual = 0.000549325, Final residual = 2.13468e-05, No Iterations 2
smoothSolver:  Solving for Uy, Initial residual = 0.0096417, Final residual = 0.000368156, No Iterations 2
smoothSolver:  Solving for Uz, Initial residual = 0.0105671, Final residual = 0.00037702, No Iterations 2
GAMG:  Solving for p, Initial residual = 0.0421421, Final residual = 0.00229752, No Iterations 2
time step continuity errors : sum local = 0.000297888, global = 4.31051e-06, cumulative = 0.00124816
smoothSolver:  Solving for omega, Initial residual = 4.08772e-05, Final residual = 2.38006e-06, No Iterations 2
smoothSolver:  Solving for k, Initial residual = 0.00419424, Final residual = 0.000124669, No Iterations 2
ExecutionTime = 38.51 s  ClockTime = 38 s

forces forcesFish write:
    Sum of forces
        Total    : (0.139684 -0.000340642 -8.07503e-05)
        Pressure : (0.0344481 -0.000338637 -7.91788e-05)
        Viscous  : (0.105236 -2.00475e-06 -1.57154e-06)
    Sum of moments
        Total    : (1.60146e-08 5.37379e-05 -4.87631e-05)
        Pressure : (4.97098e-10 5.35013e-05 -4.80294e-05)
        Viscous  : (1.55175e-08 2.36645e-07 -7.33663e-07)
    writing force and moment files.

Time = 29

smoothSolver:  Solving for Ux, Initial residual = 0.000474534, Final residual = 2.0185e-05, No Iterations 2
smoothSolver:  Solving for Uy, Initial residual = 0.0089561, Final residual = 0.000317794, No Iterations 2
smoothSolver:  Solving for Uz, Initial residual = 0.00989381, Final residual = 0.000344227, No Iterations 2
GAMG:  Solving for p, Initial residual = 0.0376167, Final residual = 0.00229484, No Iterations 2
time step continuity errors : sum local = 0.000287011, global = 3.87905e-05, cumulative = 0.00128695
smoothSolver:  Solving for omega, Initial residual = 3.84142e-05, Final residual = 2.2698e-06, No Iterations 2
smoothSolver:  Solving for k, Initial residual = 0.00377445, Final residual = 0.00011734, No Iterations 2
ExecutionTime = 39.76 s  ClockTime = 39 s

forces forcesFish write:
    Sum of forces
        Total    : (0.138715 -0.000442241 1.04418e-05)
        Pressure : (0.03423 -0.000440116 1.17408e-05)
        Viscous  : (0.104485 -2.12507e-06 -1.299e-06)
    Sum of moments
        Total    : (2.0493e-08 6.50547e-05 -5.9566e-05)
        Pressure : (4.60794e-09 6.47845e-05 -5.88121e-05)
        Viscous  : (1.58851e-08 2.70197e-07 -7.53861e-07)
    writing force and moment files.

Time = 30

smoothSolver:  Solving for Ux, Initial residual = 0.000405519, Final residual = 1.90499e-05, No Iterations 2
smoothSolver:  Solving for Uy, Initial residual = 0.00810587, Final residual = 0.000252598, No Iterations 2
smoothSolver:  Solving for Uz, Initial residual = 0.00910356, Final residual = 0.000286611, No Iterations 2
GAMG:  Solving for p, Initial residual = 0.0341048, Final residual = 0.00195579, No Iterations 2
time step continuity errors : sum local = 0.000235129, global = 2.89737e-05, cumulative = 0.00131592
smoothSolver:  Solving for omega, Initial residual = 3.6237e-05, Final residual = 2.16787e-06, No Iterations 2
smoothSolver:  Solving for k, Initial residual = 0.00339539, Final residual = 0.00011066, No Iterations 2
ExecutionTime = 41.04 s  ClockTime = 41 s

forces forcesFish write:
    Sum of forces
        Total    : (0.13736 -0.00041966 4.46922e-05)
        Pressure : (0.0335866 -0.000417326 4.57714e-05)
        Viscous  : (0.103773 -2.33412e-06 -1.07914e-06)
    Sum of moments
        Total    : (2.28286e-08 6.4454e-05 -5.61846e-05)
        Pressure : (6.94905e-09 6.41571e-05 -5.54063e-05)
        Viscous  : (1.58796e-08 2.9684e-07 -7.78315e-07)
    writing force and moment files.

Time = 31

smoothSolver:  Solving for Ux, Initial residual = 0.000361062, Final residual = 1.79581e-05, No Iterations 2
smoothSolver:  Solving for Uy, Initial residual = 0.00708507, Final residual = 0.000190302, No Iterations 2
smoothSolver:  Solving for Uz, Initial residual = 0.0080645, Final residual = 0.000217905, No Iterations 2
GAMG:  Solving for p, Initial residual = 0.0312091, Final residual = 0.00147555, No Iterations 2
time step continuity errors : sum local = 0.000172451, global = 7.86603e-06, cumulative = 0.00132379
smoothSolver:  Solving for omega, Initial residual = 3.43762e-05, Final residual = 2.07729e-06, No Iterations 2
smoothSolver:  Solving for k, Initial residual = 0.00305533, Final residual = 0.000104595, No Iterations 2
ExecutionTime = 42.28 s  ClockTime = 42 s

forces forcesFish write:
    Sum of forces
        Total    : (0.135887 -0.000311176 3.81534e-05)
        Pressure : (0.032791 -0.000308612 3.91043e-05)
        Viscous  : (0.103096 -2.56354e-06 -9.50971e-07)
    Sum of moments
        Total    : (2.30842e-08 5.4693e-05 -4.16489e-05)
        Pressure : (7.56055e-09 5.43773e-05 -4.085e-05)
        Viscous  : (1.55237e-08 3.1571e-07 -7.98904e-07)
    writing force and moment files.

Time = 32

smoothSolver:  Solving for Ux, Initial residual = 0.000335581, Final residual = 1.70839e-05, No Iterations 2
smoothSolver:  Solving for Uy, Initial residual = 0.00621683, Final residual = 0.000164585, No Iterations 2
smoothSolver:  Solving for Uz, Initial residual = 0.00712801, Final residual = 0.000178569, No Iterations 2
GAMG:  Solving for p, Initial residual = 0.0293144, Final residual = 0.00114178, No Iterations 2
time step continuity errors : sum local = 0.000131516, global = -6.65937e-06, cumulative = 0.00131713
smoothSolver:  Solving for omega, Initial residual = 3.27896e-05, Final residual = 1.99505e-06, No Iterations 2
smoothSolver:  Solving for k, Initial residual = 0.00275162, Final residual = 9.90817e-05, No Iterations 2
ExecutionTime = 43.58 s  ClockTime = 43 s

forces forcesFish write:
    Sum of forces
        Total    : (0.134507 -0.00016915 1.47421e-05)
        Pressure : (0.0320589 -0.000166386 1.56611e-05)
        Viscous  : (0.102448 -2.76384e-06 -9.18981e-07)
    Sum of moments
        Total    : (2.16571e-08 3.97492e-05 -2.17475e-05)
        Pressure : (6.72938e-09 3.94218e-05 -2.0938e-05)
        Viscous  : (1.49277e-08 3.27406e-07 -8.09485e-07)
    writing force and moment files.

Time = 33

smoothSolver:  Solving for Ux, Initial residual = 0.000323664, Final residual = 1.63866e-05, No Iterations 2
smoothSolver:  Solving for Uy, Initial residual = 0.00545927, Final residual = 0.000154805, No Iterations 2
smoothSolver:  Solving for Uz, Initial residual = 0.00633921, Final residual = 0.00016562, No Iterations 2
GAMG:  Solving for p, Initial residual = 0.0273132, Final residual = 0.0010134, No Iterations 2
time step continuity errors : sum local = 0.000116316, global = 2.27191e-06, cumulative = 0.0013194
smoothSolver:  Solving for omega, Initial residual = 3.13543e-05, Final residual = 1.91875e-06, No Iterations 2
smoothSolver:  Solving for k, Initial residual = 0.00248132, Final residual = 9.40515e-05, No Iterations 2
ExecutionTime = 44.81 s  ClockTime = 45 s

forces forcesFish write:
    Sum of forces
        Total    : (0.133357 -3.03817e-05 -1.01373e-05)
        Pressure : (0.0315295 -2.74796e-05 -9.17163e-06)
        Viscous  : (0.101828 -2.90207e-06 -9.65647e-07)
    Sum of moments
        Total    : (1.91445e-08 2.31029e-05 -1.59122e-06)
        Pressure : (4.89729e-09 2.27702e-05 -7.84282e-07)
        Viscous  : (1.42472e-08 3.32706e-07 -8.06936e-07)
    writing force and moment files.

Time = 34

smoothSolver:  Solving for Ux, Initial residual = 0.000313131, Final residual = 1.5774e-05, No Iterations 2
smoothSolver:  Solving for Uy, Initial residual = 0.00480293, Final residual = 0.000144283, No Iterations 2
smoothSolver:  Solving for Uz, Initial residual = 0.00560569, Final residual = 0.000156568, No Iterations 2
GAMG:  Solving for p, Initial residual = 0.0250048, Final residual = 0.000889837, No Iterations 2
time step continuity errors : sum local = 0.000102284, global = 1.48683e-05, cumulative = 0.00133427
smoothSolver:  Solving for omega, Initial residual = 2.99849e-05, Final residual = 1.84545e-06, No Iterations 2
smoothSolver:  Solving for k, Initial residual = 0.00224188, Final residual = 8.94501e-05, No Iterations 2
ExecutionTime = 46.03 s  ClockTime = 46 s

forces forcesFish write:
    Sum of forces
        Total    : (0.132476 9.29147e-05 -3.23703e-05)
        Pressure : (0.0312448 9.587e-05 -3.13074e-05)
        Viscous  : (0.101231 -2.95529e-06 -1.06292e-06)
    Sum of moments
        Total    : (1.62019e-08 6.18256e-06 1.58441e-05)
        Pressure : (2.57032e-09 5.85141e-06 1.66363e-05)
        Viscous  : (1.36316e-08 3.31144e-07 -7.92188e-07)
    writing force and moment files.

Time = 35

smoothSolver:  Solving for Ux, Initial residual = 0.000295527, Final residual = 1.51423e-05, No Iterations 2
smoothSolver:  Solving for Uy, Initial residual = 0.00427326, Final residual = 0.000133865, No Iterations 2
smoothSolver:  Solving for Uz, Initial residual = 0.00498316, Final residual = 0.00014866, No Iterations 2
GAMG:  Solving for p, Initial residual = 0.0223164, Final residual = 0.00106552, No Iterations 2
time step continuity errors : sum local = 0.00012324, global = -5.51178e-06, cumulative = 0.00132876
smoothSolver:  Solving for omega, Initial residual = 2.86777e-05, Final residual = 1.77375e-06, No Iterations 2
smoothSolver:  Solving for k, Initial residual = 0.00203137, Final residual = 8.52455e-05, No Iterations 2
ExecutionTime = 47.34 s  ClockTime = 47 s

forces forcesFish write:
    Sum of forces
        Total    : (0.131793 0.000179828 -4.13258e-05)
        Pressure : (0.0311378 0.000182756 -4.01554e-05)
        Viscous  : (0.100656 -2.92786e-06 -1.17043e-06)
    Sum of moments
        Total    : (1.34761e-08 -9.86438e-06 2.63593e-05)
        Pressure : (2.80433e-10 -1.01852e-05 2.713e-05)
        Viscous  : (1.31957e-08 3.20837e-07 -7.70754e-07)
    writing force and moment files.

Time = 36

smoothSolver:  Solving for Ux, Initial residual = 0.00025833, Final residual = 1.4244e-05, No Iterations 2
smoothSolver:  Solving for Uy, Initial residual = 0.00388589, Final residual = 0.000124654, No Iterations 2
smoothSolver:  Solving for Uz, Initial residual = 0.00451003, Final residual = 0.000139913, No Iterations 2
GAMG:  Solving for p, Initial residual = 0.0198859, Final residual = 0.000993053, No Iterations 2
time step continuity errors : sum local = 0.000116789, global = -1.5954e-05, cumulative = 0.00131281
smoothSolver:  Solving for omega, Initial residual = 2.74315e-05, Final residual = 1.7052e-06, No Iterations 2
smoothSolver:  Solving for k, Initial residual = 0.00184711, Final residual = 8.13989e-05, No Iterations 2
ExecutionTime = 48.59 s  ClockTime = 48 s

forces forcesFish write:
    Sum of forces
        Total    : (0.131247 0.000198262 -2.99708e-05)
        Pressure : (0.0311473 0.00020112 -2.87196e-05)
        Viscous  : (0.100099 -2.85783e-06 -1.25129e-06)
    Sum of moments
        Total    : (1.14711e-08 -1.98785e-05 2.73273e-05)
        Pressure : (-1.52688e-09 -2.01831e-05 2.80762e-05)
        Viscous  : (1.2998e-08 3.04555e-07 -7.48964e-07)
    writing force and moment files.

Time = 37

smoothSolver:  Solving for Ux, Initial residual = 0.000232588, Final residual = 1.34942e-05, No Iterations 2
smoothSolver:  Solving for Uy, Initial residual = 0.00359633, Final residual = 0.000112573, No Iterations 2
smoothSolver:  Solving for Uz, Initial residual = 0.00409713, Final residual = 0.000125239, No Iterations 2
GAMG:  Solving for p, Initial residual = 0.0177352, Final residual = 0.000835933, No Iterations 2
time step continuity errors : sum local = 0.000100115, global = -1.54864e-05, cumulative = 0.00129732
smoothSolver:  Solving for omega, Initial residual = 2.62564e-05, Final residual = 1.63904e-06, No Iterations 2
smoothSolver:  Solving for k, Initial residual = 0.00168639, Final residual = 7.78551e-05, No Iterations 2
ExecutionTime = 49.92 s  ClockTime = 50 s

forces forcesFish write:
    Sum of forces
        Total    : (0.130796 0.000161721 -8.60425e-06)
        Pressure : (0.0312351 0.000164499 -7.31776e-06)
        Viscous  : (0.0995606 -2.7774e-06 -1.28649e-06)
    Sum of moments
        Total    : (1.03671e-08 -2.2655e-05 2.10757e-05)
        Pressure : (-2.64628e-09 -2.29414e-05 2.18062e-05)
        Viscous  : (1.30134e-08 2.86428e-07 -7.30521e-07)
    writing force and moment files.

Time = 38

smoothSolver:  Solving for Ux, Initial residual = 0.000218213, Final residual = 1.29152e-05, No Iterations 2
smoothSolver:  Solving for Uy, Initial residual = 0.00330284, Final residual = 0.00010215, No Iterations 2
smoothSolver:  Solving for Uz, Initial residual = 0.0037404, Final residual = 0.000110991, No Iterations 2
GAMG:  Solving for p, Initial residual = 0.0156406, Final residual = 0.00061523, No Iterations 2
time step continuity errors : sum local = 7.46449e-05, global = -6.88483e-06, cumulative = 0.00129043
smoothSolver:  Solving for omega, Initial residual = 2.51677e-05, Final residual = 1.5749e-06, No Iterations 2
smoothSolver:  Solving for k, Initial residual = 0.00154678, Final residual = 7.45743e-05, No Iterations 2
ExecutionTime = 51.2 s  ClockTime = 51 s

forces forcesFish write:
    Sum of forces
        Total    : (0.130394 0.000100617 1.09848e-05)
        Pressure : (0.0313563 0.00010332 1.22587e-05)
        Viscous  : (0.0990374 -2.70223e-06 -1.27387e-06)
    Sum of moments
        Total    : (1.01128e-08 -1.99248e-05 1.13668e-05)
        Pressure : (-3.04852e-09 -2.01944e-05 1.20845e-05)
        Viscous  : (1.31614e-08 2.69624e-07 -7.17768e-07)
    writing force and moment files.

Time = 39

smoothSolver:  Solving for Ux, Initial residual = 0.000207585, Final residual = 1.24373e-05, No Iterations 2
smoothSolver:  Solving for Uy, Initial residual = 0.00297945, Final residual = 9.34052e-05, No Iterations 2
smoothSolver:  Solving for Uz, Initial residual = 0.00338584, Final residual = 9.86173e-05, No Iterations 2
GAMG:  Solving for p, Initial residual = 0.0138493, Final residual = 0.000472028, No Iterations 2
time step continuity errors : sum local = 5.76382e-05, global = -7.8726e-07, cumulative = 0.00128965
smoothSolver:  Solving for omega, Initial residual = 2.41355e-05, Final residual = 1.51265e-06, No Iterations 2
smoothSolver:  Solving for k, Initial residual = 0.00142584, Final residual = 7.15201e-05, No Iterations 2
ExecutionTime = 52.43 s  ClockTime = 52 s

forces forcesFish write:
    Sum of forces
        Total    : (0.129994 3.93474e-05 2.20158e-05)
        Pressure : (0.0314653 4.19861e-05 2.32382e-05)
        Viscous  : (0.0985289 -2.63867e-06 -1.22244e-06)
    Sum of moments
        Total    : (1.05153e-08 -1.42269e-05 1.39044e-06)
        Pressure : (-2.82881e-09 -1.44827e-05 2.10186e-06)
        Viscous  : (1.33441e-08 2.55808e-07 -7.11425e-07)
    writing force and moment files.

Time = 40

smoothSolver:  Solving for Ux, Initial residual = 0.000198167, Final residual = 1.2047e-05, No Iterations 2
smoothSolver:  Solving for Uy, Initial residual = 0.0026373, Final residual = 8.37312e-05, No Iterations 2
smoothSolver:  Solving for Uz, Initial residual = 0.0030166, Final residual = 8.7409e-05, No Iterations 2
GAMG:  Solving for p, Initial residual = 0.0123394, Final residual = 0.000429721, No Iterations 2
time step continuity errors : sum local = 5.25644e-05, global = -5.99648e-06, cumulative = 0.00128365
smoothSolver:  Solving for omega, Initial residual = 2.31484e-05, Final residual = 1.45208e-06, No Iterations 2
smoothSolver:  Solving for k, Initial residual = 0.00132113, Final residual = 6.86684e-05, No Iterations 2
ExecutionTime = 53.69 s  ClockTime = 53 s

forces forcesFish write:
    Sum of forces
        Total    : (0.129558 -1.39106e-05 2.39313e-05)
        Pressure : (0.0315244 -1.13162e-05 2.50784e-05)
        Viscous  : (0.098034 -2.59443e-06 -1.14713e-06)
    Sum of moments
        Total    : (1.13224e-08 -7.08387e-06 -7.48279e-06)
        Pressure : (-2.16072e-09 -7.33006e-06 -6.77132e-06)
        Viscous  : (1.34831e-08 2.46188e-07 -7.11468e-07)
    writing force and moment files.

Time = 41

smoothSolver:  Solving for Ux, Initial residual = 0.00019038, Final residual = 1.1714e-05, No Iterations 2
smoothSolver:  Solving for Uy, Initial residual = 0.00230898, Final residual = 7.31479e-05, No Iterations 2
smoothSolver:  Solving for Uz, Initial residual = 0.00264823, Final residual = 7.59556e-05, No Iterations 2
GAMG:  Solving for p, Initial residual = 0.0110819, Final residual = 0.000361717, No Iterations 2
time step continuity errors : sum local = 4.42421e-05, global = -1.20333e-05, cumulative = 0.00127162
smoothSolver:  Solving for omega, Initial residual = 2.22033e-05, Final residual = 1.39333e-06, No Iterations 2
smoothSolver:  Solving for k, Initial residual = 0.00123058, Final residual = 6.59967e-05, No Iterations 2
ExecutionTime = 54.95 s  ClockTime = 55 s

forces forcesFish write:
    Sum of forces
        Total    : (0.129073 -5.7567e-05 1.68296e-05)
        Pressure : (0.0315204 -5.49903e-05 1.78971e-05)
        Viscous  : (0.0975521 -2.57665e-06 -1.06749e-06)
    Sum of moments
        Total    : (1.22762e-08 1.08175e-06 -1.44056e-05)
        Pressure : (-1.25364e-09 8.39586e-07 -1.3689e-05)
        Viscous  : (1.35298e-08 2.42163e-07 -7.16596e-07)
    writing force and moment files.

Time = 42

smoothSolver:  Solving for Ux, Initial residual = 0.000182064, Final residual = 1.13848e-05, No Iterations 2
smoothSolver:  Solving for Uy, Initial residual = 0.00202172, Final residual = 6.26388e-05, No Iterations 2
smoothSolver:  Solving for Uz, Initial residual = 0.00232591, Final residual = 6.5057e-05, No Iterations 2
GAMG:  Solving for p, Initial residual = 0.00995616, Final residual = 0.00039852, No Iterations 2
time step continuity errors : sum local = 4.8638e-05, global = -1.45731e-06, cumulative = 0.00127016
smoothSolver:  Solving for omega, Initial residual = 2.13105e-05, Final residual = 1.33696e-06, No Iterations 2
smoothSolver:  Solving for k, Initial residual = 0.00115203, Final residual = 6.34835e-05, No Iterations 2
ExecutionTime = 56.23 s  ClockTime = 56 s

forces forcesFish write:
    Sum of forces
        Total    : (0.128565 -8.38572e-05 -5.33881e-07)
        Pressure : (0.0314827 -8.12763e-05 4.7024e-07)
        Viscous  : (0.0970827 -2.58087e-06 -1.00412e-06)
    Sum of moments
        Total    : (1.31319e-08 9.59822e-06 -1.73103e-05)
        Pressure : (-3.23844e-10 9.35331e-06 -1.65871e-05)
        Viscous  : (1.34557e-08 2.44914e-07 -7.2318e-07)
    writing force and moment files.

Time = 43

smoothSolver:  Solving for Ux, Initial residual = 0.000165635, Final residual = 1.09868e-05, No Iterations 2
smoothSolver:  Solving for Uy, Initial residual = 0.00179506, Final residual = 5.44036e-05, No Iterations 2
smoothSolver:  Solving for Uz, Initial residual = 0.00206267, Final residual = 5.6663e-05, No Iterations 2
GAMG:  Solving for p, Initial residual = 0.00897761, Final residual = 0.00035746, No Iterations 2
time step continuity errors : sum local = 4.32866e-05, global = 3.70759e-06, cumulative = 0.00127387
smoothSolver:  Solving for omega, Initial residual = 2.04488e-05, Final residual = 1.28265e-06, No Iterations 2
smoothSolver:  Solving for k, Initial residual = 0.00108366, Final residual = 6.11035e-05, No Iterations 2
ExecutionTime = 57.47 s  ClockTime = 57 s

forces forcesFish write:
    Sum of forces
        Total    : (0.128065 -8.02875e-05 -2.01583e-05)
        Pressure : (0.0314394 -7.76977e-05 -1.91925e-05)
        Viscous  : (0.0966253 -2.58972e-06 -9.6578e-07)
    Sum of moments
        Total    : (1.36919e-08 1.48025e-05 -1.5411e-05)
        Pressure : (4.32335e-10 1.45502e-05 -1.46833e-05)
        Viscous  : (1.32596e-08 2.52309e-07 -7.27672e-07)
    writing force and moment files.

Time = 44

smoothSolver:  Solving for Ux, Initial residual = 0.000153833, Final residual = 1.06731e-05, No Iterations 2
smoothSolver:  Solving for Uy, Initial residual = 0.00163995, Final residual = 5.05104e-05, No Iterations 2
smoothSolver:  Solving for Uz, Initial residual = 0.00185634, Final residual = 5.20085e-05, No Iterations 2
GAMG:  Solving for p, Initial residual = 0.00816927, Final residual = 0.000316369, No Iterations 2
time step continuity errors : sum local = 3.7975e-05, global = 4.96279e-06, cumulative = 0.00127883
smoothSolver:  Solving for omega, Initial residual = 1.96167e-05, Final residual = 1.23031e-06, No Iterations 2
smoothSolver:  Solving for k, Initial residual = 0.00102412, Final residual = 5.88395e-05, No Iterations 2
ExecutionTime = 58.71 s  ClockTime = 58 s

forces forcesFish write:
    Sum of forces
        Total    : (0.127564 -5.76555e-05 -3.45831e-05)
        Pressure : (0.0313847 -5.50601e-05 -3.36296e-05)
        Viscous  : (0.0961792 -2.59533e-06 -9.53497e-07)
    Sum of moments
        Total    : (1.38956e-08 1.61951e-05 -1.09151e-05)
        Pressure : (9.15739e-10 1.59329e-05 -1.01855e-05)
        Viscous  : (1.29799e-08 2.62204e-07 -7.296e-07)
    writing force and moment files.

Time = 45

smoothSolver:  Solving for Ux, Initial residual = 0.000148197, Final residual = 1.0425e-05, No Iterations 2
smoothSolver:  Solving for Uy, Initial residual = 0.00153218, Final residual = 4.9106e-05, No Iterations 2
smoothSolver:  Solving for Uz, Initial residual = 0.001698, Final residual = 4.96964e-05, No Iterations 2
GAMG:  Solving for p, Initial residual = 0.00741893, Final residual = 0.000256392, No Iterations 2
time step continuity errors : sum local = 3.05916e-05, global = 3.48563e-06, cumulative = 0.00128232
smoothSolver:  Solving for omega, Initial residual = 1.8824e-05, Final residual = 1.18011e-06, No Iterations 2
smoothSolver:  Solving for k, Initial residual = 0.00097168, Final residual = 5.66765e-05, No Iterations 2
ExecutionTime = 59.98 s  ClockTime = 60 s

forces forcesFish write:
    Sum of forces
        Total    : (0.127065 -3.14541e-05 -4.15353e-05)
        Pressure : (0.031321 -2.88552e-05 -4.05712e-05)
        Viscous  : (0.0957443 -2.59889e-06 -9.64078e-07)
    Sum of moments
        Total    : (1.37751e-08 1.51333e-05 -6.1253e-06)
        Pressure : (1.10075e-09 1.48605e-05 -5.39582e-06)
        Viscous  : (1.26744e-08 2.72745e-07 -7.29482e-07)
    writing force and moment files.

Time = 46

smoothSolver:  Solving for Ux, Initial residual = 0.000146356, Final residual = 1.02141e-05, No Iterations 2
smoothSolver:  Solving for Uy, Initial residual = 0.00144056, Final residual = 4.86317e-05, No Iterations 2
smoothSolver:  Solving for Uz, Initial residual = 0.00157672, Final residual = 4.86372e-05, No Iterations 2
GAMG:  Solving for p, Initial residual = 0.00672502, Final residual = 0.000240856, No Iterations 2
time step continuity errors : sum local = 2.86556e-05, global = 5.11761e-06, cumulative = 0.00128743
smoothSolver:  Solving for omega, Initial residual = 1.80833e-05, Final residual = 1.13226e-06, No Iterations 2
smoothSolver:  Solving for k, Initial residual = 0.00092487, Final residual = 5.45919e-05, No Iterations 2
ExecutionTime = 61.25 s  ClockTime = 61 s

forces forcesFish write:
    Sum of forces
        Total    : (0.12658 -8.6553e-06 -4.27485e-05)
        Pressure : (0.0312602 -6.05378e-06 -4.17561e-05)
        Viscous  : (0.0953202 -2.60152e-06 -9.92382e-07)
    Sum of moments
        Total    : (1.34099e-08 1.29274e-05 -1.98037e-06)
        Pressure : (1.01804e-09 1.26445e-05 -1.25264e-06)
        Viscous  : (1.23918e-08 2.82909e-07 -7.2773e-07)
    writing force and moment files.

Time = 47

smoothSolver:  Solving for Ux, Initial residual = 0.000143671, Final residual = 9.98443e-06, No Iterations 2
smoothSolver:  Solving for Uy, Initial residual = 0.00135981, Final residual = 4.82025e-05, No Iterations 2
smoothSolver:  Solving for Uz, Initial residual = 0.00148449, Final residual = 4.81289e-05, No Iterations 2
GAMG:  Solving for p, Initial residual = 0.0061098, Final residual = 0.000219603, No Iterations 2
time step continuity errors : sum local = 2.60946e-05, global = 9.15855e-06, cumulative = 0.00129659
smoothSolver:  Solving for omega, Initial residual = 1.73926e-05, Final residual = 1.08678e-06, No Iterations 2
smoothSolver:  Solving for k, Initial residual = 0.000882837, Final residual = 5.25865e-05, No Iterations 2
ExecutionTime = 62.53 s  ClockTime = 62 s

forces forcesFish write:
    Sum of forces
        Total    : (0.126118 8.63313e-06 -3.98687e-05)
        Pressure : (0.0312112 1.12356e-05 -3.88378e-05)
        Viscous  : (0.0949064 -2.60251e-06 -1.03089e-06)
    Sum of moments
        Total    : (1.28957e-08 1.01959e-05 1.08662e-06)
        Pressure : (7.33051e-10 9.9039e-06 1.81141e-06)
        Viscous  : (1.21627e-08 2.92028e-07 -7.24793e-07)
    writing force and moment files.

Time = 48

smoothSolver:  Solving for Ux, Initial residual = 0.000140372, Final residual = 9.75321e-06, No Iterations 2
smoothSolver:  Solving for Uy, Initial residual = 0.00128697, Final residual = 4.80224e-05, No Iterations 2
smoothSolver:  Solving for Uz, Initial residual = 0.00141538, Final residual = 4.81723e-05, No Iterations 2
GAMG:  Solving for p, Initial residual = 0.00558172, Final residual = 0.000196245, No Iterations 2
time step continuity errors : sum local = 2.33117e-05, global = 1.14739e-05, cumulative = 0.00130807
smoothSolver:  Solving for omega, Initial residual = 1.67384e-05, Final residual = 1.04359e-06, No Iterations 2
smoothSolver:  Solving for k, Initial residual = 0.000844865, Final residual = 5.06569e-05, No Iterations 2
ExecutionTime = 63.76 s  ClockTime = 63 s

forces forcesFish write:
    Sum of forces
        Total    : (0.125678 1.78257e-05 -3.4246e-05)
        Pressure : (0.0311757 2.04283e-05 -3.31753e-05)
        Viscous  : (0.0945024 -2.60262e-06 -1.07065e-06)
    Sum of moments
        Total    : (1.23292e-08 7.47309e-06 2.40194e-06)
        Pressure : (3.28014e-10 7.17368e-06 3.12362e-06)
        Viscous  : (1.20012e-08 2.99411e-07 -7.21679e-07)
    writing force and moment files.

Time = 49

smoothSolver:  Solving for Ux, Initial residual = 0.000136782, Final residual = 9.52477e-06, No Iterations 2
smoothSolver:  Solving for Uy, Initial residual = 0.00122121, Final residual = 4.83092e-05, No Iterations 2
smoothSolver:  Solving for Uz, Initial residual = 0.00135481, Final residual = 4.87914e-05, No Iterations 2
GAMG:  Solving for p, Initial residual = 0.00509991, Final residual = 0.000202876, No Iterations 2
time step continuity errors : sum local = 2.41237e-05, global = 8.6574e-06, cumulative = 0.00131672
smoothSolver:  Solving for omega, Initial residual = 1.61102e-05, Final residual = 1.00228e-06, No Iterations 2
smoothSolver:  Solving for k, Initial residual = 0.000810157, Final residual = 4.87933e-05, No Iterations 2
ExecutionTime = 65 s  ClockTime = 65 s

forces forcesFish write:
    Sum of forces
        Total    : (0.12525 1.65632e-05 -2.67024e-05)
        Pressure : (0.0311419 1.9169e-05 -2.55987e-05)
        Viscous  : (0.0941077 -2.60577e-06 -1.10367e-06)
    Sum of moments
        Total    : (1.17957e-08 5.18779e-06 1.40976e-06)
        Pressure : (-1.1157e-10 4.88317e-06 2.12987e-06)
        Viscous  : (1.19073e-08 3.04622e-07 -7.20109e-07)
    writing force and moment files.

Time = 50

smoothSolver:  Solving for Ux, Initial residual = 0.000131257, Final residual = 9.27815e-06, No Iterations 2
smoothSolver:  Solving for Uy, Initial residual = 0.00115837, Final residual = 4.83656e-05, No Iterations 2
smoothSolver:  Solving for Uz, Initial residual = 0.00128288, Final residual = 4.92083e-05, No Iterations 2
GAMG:  Solving for p, Initial residual = 0.00469195, Final residual = 0.000191406, No Iterations 2
time step continuity errors : sum local = 2.284e-05, global = 8.0535e-06, cumulative = 0.00132478
smoothSolver:  Solving for omega, Initial residual = 1.5506e-05, Final residual = 9.62791e-07, No Iterations 2
smoothSolver:  Solving for k, Initial residual = 0.00077785, Final residual = 4.69879e-05, No Iterations 2
ExecutionTime = 66.22 s  ClockTime = 66 s

forces forcesFish write:
    Sum of forces
        Total    : (0.124827 8.34456e-06 -1.91849e-05)
        Pressure : (0.031105 1.09572e-05 -1.80598e-05)
        Viscous  : (0.0937218 -2.6126e-06 -1.12516e-06)
    Sum of moments
        Total    : (1.13486e-08 3.90378e-06 -7.41023e-07)
        Pressure : (-5.15544e-10 3.59607e-06 -2.0635e-08)
        Viscous  : (1.18642e-08 3.07708e-07 -7.20388e-07)
    writing force and moment files.

Time = 51

smoothSolver:  Solving for Ux, Initial residual = 0.000125941, Final residual = 9.0359e-06, No Iterations 2
smoothSolver:  Solving for Uy, Initial residual = 0.00108762, Final residual = 4.70679e-05, No Iterations 2
smoothSolver:  Solving for Uz, Initial residual = 0.00119079, Final residual = 4.81397e-05, No Iterations 2
GAMG:  Solving for p, Initial residual = 0.00432429, Final residual = 0.000164785, No Iterations 2
time step continuity errors : sum local = 1.97383e-05, global = 6.49005e-06, cumulative = 0.00133127
smoothSolver:  Solving for omega, Initial residual = 1.49336e-05, Final residual = 9.25475e-07, No Iterations 2
smoothSolver:  Solving for k, Initial residual = 0.000747675, Final residual = 4.5236e-05, No Iterations 2
ExecutionTime = 67.44 s  ClockTime = 67 s

forces forcesFish write:
    Sum of forces
        Total    : (0.124415 -1.32623e-06 -1.41942e-05)
        Pressure : (0.0310713 1.2941e-06 -1.30597e-05)
        Viscous  : (0.0933442 -2.62033e-06 -1.1345e-06)
    Sum of moments
        Total    : (1.1001e-08 3.68424e-06 -2.83382e-06)
        Pressure : (-8.43759e-10 3.37498e-06 -2.1121e-06)
        Viscous  : (1.18447e-08 3.09269e-07 -7.21716e-07)
    writing force and moment files.

Time = 52

smoothSolver:  Solving for Ux, Initial residual = 0.000120997, Final residual = 8.80463e-06, No Iterations 2
smoothSolver:  Solving for Uy, Initial residual = 0.00101445, Final residual = 4.47423e-05, No Iterations 2
smoothSolver:  Solving for Uz, Initial residual = 0.00109403, Final residual = 4.58813e-05, No Iterations 2
GAMG:  Solving for p, Initial residual = 0.00396836, Final residual = 0.000144489, No Iterations 2
time step continuity errors : sum local = 1.73518e-05, global = 3.58855e-06, cumulative = 0.00133486
smoothSolver:  Solving for omega, Initial residual = 1.43919e-05, Final residual = 8.90184e-07, No Iterations 2
smoothSolver:  Solving for k, Initial residual = 0.000719341, Final residual = 4.35346e-05, No Iterations 2
ExecutionTime = 68.65 s  ClockTime = 68 s

forces forcesFish write:
    Sum of forces
        Total    : (0.124016 -9.20917e-06 -1.21167e-05)
        Pressure : (0.0310417 -6.58304e-06 -1.0983e-05)
        Viscous  : (0.0929741 -2.62613e-06 -1.13369e-06)
    Sum of moments
        Total    : (1.07421e-08 4.11177e-06 -4.37873e-06)
        Pressure : (-1.08103e-09 3.80164e-06 -3.65548e-06)
        Viscous  : (1.18231e-08 3.10125e-07 -7.23243e-07)
    writing force and moment files.

Time = 53

smoothSolver:  Solving for Ux, Initial residual = 0.000116263, Final residual = 8.58755e-06, No Iterations 2
smoothSolver:  Solving for Uy, Initial residual = 0.000947497, Final residual = 4.21495e-05, No Iterations 2
smoothSolver:  Solving for Uz, Initial residual = 0.00100985, Final residual = 4.32206e-05, No Iterations 2
GAMG:  Solving for p, Initial residual = 0.00361942, Final residual = 0.000140315, No Iterations 2
time step continuity errors : sum local = 1.68747e-05, global = 5.56544e-07, cumulative = 0.00133541
smoothSolver:  Solving for omega, Initial residual = 1.38767e-05, Final residual = 8.56549e-07, No Iterations 2
smoothSolver:  Solving for k, Initial residual = 0.000692532, Final residual = 4.1876e-05, No Iterations 2
ExecutionTime = 69.9 s  ClockTime = 70 s

forces forcesFish write:
    Sum of forces
        Total    : (0.123623 -1.4485e-05 -1.23096e-05)
        Pressure : (0.031012 -1.18562e-05 -1.11837e-05)
        Viscous  : (0.0926111 -2.62875e-06 -1.12593e-06)
    Sum of moments
        Total    : (1.05521e-08 4.83126e-06 -5.32085e-06)
        Pressure : (-1.23134e-09 4.52039e-06 -4.59636e-06)
        Viscous  : (1.17834e-08 3.10867e-07 -7.24481e-07)
    writing force and moment files.

Time = 54

smoothSolver:  Solving for Ux, Initial residual = 0.000111816, Final residual = 8.38001e-06, No Iterations 2
smoothSolver:  Solving for Uy, Initial residual = 0.000891645, Final residual = 3.98272e-05, No Iterations 2
smoothSolver:  Solving for Uz, Initial residual = 0.00094664, Final residual = 4.07203e-05, No Iterations 2
GAMG:  Solving for p, Initial residual = 0.00330849, Final residual = 0.000131754, No Iterations 2
time step continuity errors : sum local = 1.58583e-05, global = -2.14571e-06, cumulative = 0.00133327
smoothSolver:  Solving for omega, Initial residual = 1.33888e-05, Final residual = 8.24561e-07, No Iterations 2
smoothSolver:  Solving for k, Initial residual = 0.000666963, Final residual = 4.02619e-05, No Iterations 2
ExecutionTime = 71.12 s  ClockTime = 71 s

forces forcesFish write:
    Sum of forces
        Total    : (0.123234 -1.7004e-05 -1.41827e-05)
        Pressure : (0.0309789 -1.4376e-05 -1.30676e-05)
        Viscous  : (0.092255 -2.62803e-06 -1.11515e-06)
    Sum of moments
        Total    : (1.04079e-08 5.66125e-06 -5.64508e-06)
        Pressure : (-1.31207e-09 5.34946e-06 -4.91999e-06)
        Viscous  : (1.17199e-08 3.11785e-07 -7.2509e-07)
    writing force and moment files.

Time = 55

smoothSolver:  Solving for Ux, Initial residual = 0.000107786, Final residual = 8.18171e-06, No Iterations 2
smoothSolver:  Solving for Uy, Initial residual = 0.000845728, Final residual = 3.8046e-05, No Iterations 2
smoothSolver:  Solving for Uz, Initial residual = 0.000901465, Final residual = 3.87369e-05, No Iterations 2
GAMG:  Solving for p, Initial residual = 0.0030288, Final residual = 0.00011686, No Iterations 2
time step continuity errors : sum local = 1.40724e-05, global = -4.07806e-06, cumulative = 0.00132919
smoothSolver:  Solving for omega, Initial residual = 1.29365e-05, Final residual = 7.94418e-07, No Iterations 2
smoothSolver:  Solving for k, Initial residual = 0.000642366, Final residual = 3.86866e-05, No Iterations 2
ExecutionTime = 72.33 s  ClockTime = 72 s

forces forcesFish write:
    Sum of forces
        Total    : (0.122848 -1.6766e-05 -1.71696e-05)
        Pressure : (0.0309419 -1.41417e-05 -1.60644e-05)
        Viscous  : (0.0919057 -2.6243e-06 -1.10522e-06)
    Sum of moments
        Total    : (1.02867e-08 6.47539e-06 -5.35093e-06)
        Pressure : (-1.34759e-09 6.16222e-06 -4.62603e-06)
        Viscous  : (1.16343e-08 3.13177e-07 -7.24898e-07)
    writing force and moment files.

Time = 56

smoothSolver:  Solving for Ux, Initial residual = 0.000104235, Final residual = 7.99449e-06, No Iterations 2
smoothSolver:  Solving for Uy, Initial residual = 0.000808926, Final residual = 3.68754e-05, No Iterations 2
smoothSolver:  Solving for Uz, Initial residual = 0.000867026, Final residual = 3.74064e-05, No Iterations 2
GAMG:  Solving for p, Initial residual = 0.00279515, Final residual = 0.00011275, No Iterations 2
time step continuity errors : sum local = 1.35795e-05, global = -4.42672e-06, cumulative = 0.00132476
smoothSolver:  Solving for omega, Initial residual = 1.25214e-05, Final residual = 7.66277e-07, No Iterations 2
smoothSolver:  Solving for k, Initial residual = 0.000618656, Final residual = 3.71517e-05, No Iterations 2
ExecutionTime = 73.57 s  ClockTime = 73 s

forces forcesFish write:
    Sum of forces
        Total    : (0.122466 -1.38194e-05 -2.08215e-05)
        Pressure : (0.0309026 -1.12019e-05 -1.97225e-05)
        Viscous  : (0.0915629 -2.61758e-06 -1.09901e-06)
    Sum of moments
        Total    : (1.01712e-08 7.21762e-06 -4.45017e-06)
        Pressure : (-1.36209e-09 6.90243e-06 -3.7265e-06)
        Viscous  : (1.15333e-08 3.15184e-07 -7.23666e-07)
    writing force and moment files.

Time = 57

smoothSolver:  Solving for Ux, Initial residual = 0.000100843, Final residual = 7.81512e-06, No Iterations 2
smoothSolver:  Solving for Uy, Initial residual = 0.000780534, Final residual = 3.63104e-05, No Iterations 2
smoothSolver:  Solving for Uz, Initial residual = 0.000839546, Final residual = 3.6684e-05, No Iterations 2
GAMG:  Solving for p, Initial residual = 0.00260609, Final residual = 0.00011162, No Iterations 2
time step continuity errors : sum local = 1.34381e-05, global = -3.79384e-06, cumulative = 0.00132097
smoothSolver:  Solving for omega, Initial residual = 1.21421e-05, Final residual = 7.40178e-07, No Iterations 2
smoothSolver:  Solving for k, Initial residual = 0.000595793, Final residual = 3.5663e-05, No Iterations 2
ExecutionTime = 74.81 s  ClockTime = 74 s

forces forcesFish write:
    Sum of forces
        Total    : (0.122092 -8.73437e-06 -2.41872e-05)
        Pressure : (0.0308657 -6.12685e-06 -2.30895e-05)
        Viscous  : (0.0912265 -2.60752e-06 -1.09766e-06)
    Sum of moments
        Total    : (1.00502e-08 7.76707e-06 -3.11271e-06)
        Pressure : (-1.3758e-09 7.44933e-06 -2.39157e-06)
        Viscous  : (1.1426e-08 3.17737e-07 -7.21144e-07)
    writing force and moment files.

Time = 58

smoothSolver:  Solving for Ux, Initial residual = 9.80987e-05, Final residual = 7.65315e-06, No Iterations 2
smoothSolver:  Solving for Uy, Initial residual = 0.000757205, Final residual = 3.62627e-05, No Iterations 2
smoothSolver:  Solving for Uz, Initial residual = 0.000811454, Final residual = 3.64751e-05, No Iterations 2
GAMG:  Solving for p, Initial residual = 0.00245017, Final residual = 0.000106421, No Iterations 2
time step continuity errors : sum local = 1.27982e-05, global = -4.07193e-06, cumulative = 0.0013169
smoothSolver:  Solving for omega, Initial residual = 1.17883e-05, Final residual = 7.15836e-07, No Iterations 2
smoothSolver:  Solving for k, Initial residual = 0.00057372, Final residual = 3.42174e-05, No Iterations 2
ExecutionTime = 76.05 s  ClockTime = 76 s

forces forcesFish write:
    Sum of forces
        Total    : (0.12173 -3.68868e-06 -2.59417e-05)
        Pressure : (0.0308334 -1.09282e-06 -2.48414e-05)
        Viscous  : (0.0908963 -2.59586e-06 -1.10029e-06)
    Sum of moments
        Total    : (9.91963e-09 7.93739e-06 -1.88788e-06)
        Pressure : (-1.40261e-09 7.61684e-06 -1.17009e-06)
        Viscous  : (1.13222e-08 3.20543e-07 -7.17789e-07)
    writing force and moment files.

Time = 59

smoothSolver:  Solving for Ux, Initial residual = 9.71823e-05, Final residual = 7.52083e-06, No Iterations 2
smoothSolver:  Solving for Uy, Initial residual = 0.000732168, Final residual = 3.6292e-05, No Iterations 2
smoothSolver:  Solving for Uz, Initial residual = 0.000774551, Final residual = 3.63421e-05, No Iterations 2
GAMG:  Solving for p, Initial residual = 0.00231111, Final residual = 0.000102455, No Iterations 2
time step continuity errors : sum local = 1.2306e-05, global = -4.43223e-06, cumulative = 0.00131246
smoothSolver:  Solving for omega, Initial residual = 1.14598e-05, Final residual = 6.93059e-07, No Iterations 2
smoothSolver:  Solving for k, Initial residual = 0.000552361, Final residual = 3.2814e-05, No Iterations 2
ExecutionTime = 77.3 s  ClockTime = 77 s

forces forcesFish write:
    Sum of forces
        Total    : (0.121376 -5.09478e-07 -2.58925e-05)
        Pressure : (0.0308039 2.07552e-06 -2.47873e-05)
        Viscous  : (0.0905719 -2.585e-06 -1.10525e-06)
    Sum of moments
        Total    : (9.78151e-09 7.74799e-06 -1.18709e-06)
        Pressure : (-1.4483e-09 7.42475e-06 -4.72843e-07)
        Viscous  : (1.12298e-08 3.23237e-07 -7.14244e-07)
    writing force and moment files.

Time = 60

smoothSolver:  Solving for Ux, Initial residual = 9.7041e-05, Final residual = 7.39985e-06, No Iterations 2
smoothSolver:  Solving for Uy, Initial residual = 0.000703281, Final residual = 3.60779e-05, No Iterations 2
smoothSolver:  Solving for Uz, Initial residual = 0.000732068, Final residual = 3.59937e-05, No Iterations 2
GAMG:  Solving for p, Initial residual = 0.00218276, Final residual = 9.95424e-05, No Iterations 2
time step continuity errors : sum local = 1.19461e-05, global = -3.70859e-06, cumulative = 0.00130875
smoothSolver:  Solving for omega, Initial residual = 1.1154e-05, Final residual = 6.71766e-07, No Iterations 2
smoothSolver:  Solving for k, Initial residual = 0.000531683, Final residual = 3.14506e-05, No Iterations 2
ExecutionTime = 78.51 s  ClockTime = 78 s

forces forcesFish write:
    Sum of forces
        Total    : (0.121029 6.11708e-07 -2.46942e-05)
        Pressure : (0.0307757 3.18829e-06 -2.35833e-05)
        Viscous  : (0.0902533 -2.57658e-06 -1.11096e-06)
    Sum of moments
        Total    : (9.64066e-09 7.36745e-06 -1.02331e-06)
        Pressure : (-1.51159e-09 7.0419e-06 -3.12261e-07)
        Viscous  : (1.11523e-08 3.25549e-07 -7.1105e-07)
    writing force and moment files.

Time = 61

smoothSolver:  Solving for Ux, Initial residual = 9.64261e-05, Final residual = 7.27424e-06, No Iterations 2
smoothSolver:  Solving for Uy, Initial residual = 0.000673697, Final residual = 3.56526e-05, No Iterations 2
smoothSolver:  Solving for Uz, Initial residual = 0.000691521, Final residual = 3.549e-05, No Iterations 2
GAMG:  Solving for p, Initial residual = 0.00206188, Final residual = 9.68395e-05, No Iterations 2
time step continuity errors : sum local = 1.16169e-05, global = -2.37731e-06, cumulative = 0.00130638
smoothSolver:  Solving for omega, Initial residual = 1.08669e-05, Final residual = 6.51886e-07, No Iterations 2
smoothSolver:  Solving for k, Initial residual = 0.000511652, Final residual = 3.01294e-05, No Iterations 2
ExecutionTime = 79.81 s  ClockTime = 80 s

forces forcesFish write:
    Sum of forces
        Total    : (0.120688 2.65159e-07 -2.30216e-05)
        Pressure : (0.0307483 2.83607e-06 -2.19054e-05)
        Viscous  : (0.0899401 -2.57091e-06 -1.11621e-06)
    Sum of moments
        Total    : (9.50232e-09 6.94354e-06 -1.24459e-06)
        Pressure : (-1.58656e-09 6.61608e-06 -5.36196e-07)
        Viscous  : (1.10889e-08 3.27454e-07 -7.08393e-07)
    writing force and moment files.

Time = 62

smoothSolver:  Solving for Ux, Initial residual = 9.53294e-05, Final residual = 7.14588e-06, No Iterations 2
smoothSolver:  Solving for Uy, Initial residual = 0.000648858, Final residual = 3.51842e-05, No Iterations 2
smoothSolver:  Solving for Uz, Initial residual = 0.00065943, Final residual = 3.50129e-05, No Iterations 2
GAMG:  Solving for p, Initial residual = 0.00194725, Final residual = 9.41414e-05, No Iterations 2
time step continuity errors : sum local = 1.12919e-05, global = -8.5026e-07, cumulative = 0.00130553
smoothSolver:  Solving for omega, Initial residual = 1.05941e-05, Final residual = 6.33259e-07, No Iterations 2
smoothSolver:  Solving for k, Initial residual = 0.000492225, Final residual = 2.88483e-05, No Iterations 2
ExecutionTime = 81.03 s  ClockTime = 81 s

forces forcesFish write:
    Sum of forces
        Total    : (0.120354 -9.90637e-07 -2.13516e-05)
        Pressure : (0.0307219 1.57692e-06 -2.02317e-05)
        Viscous  : (0.0896321 -2.56755e-06 -1.11991e-06)
    Sum of moments
        Total    : (9.37133e-09 6.57172e-06 -1.71017e-06)
        Pressure : (-1.66511e-09 6.24283e-06 -1.00384e-06)
        Viscous  : (1.10364e-08 3.28896e-07 -7.06332e-07)
    writing force and moment files.

Time = 63

smoothSolver:  Solving for Ux, Initial residual = 9.39872e-05, Final residual = 7.01724e-06, No Iterations 2
smoothSolver:  Solving for Uy, Initial residual = 0.000629322, Final residual = 3.47717e-05, No Iterations 2
smoothSolver:  Solving for Uz, Initial residual = 0.000637166, Final residual = 3.4641e-05, No Iterations 2
GAMG:  Solving for p, Initial residual = 0.00184015, Final residual = 9.25345e-05, No Iterations 2
time step continuity errors : sum local = 1.10996e-05, global = 4.98068e-07, cumulative = 0.00130603
smoothSolver:  Solving for omega, Initial residual = 1.03358e-05, Final residual = 6.15654e-07, No Iterations 2
smoothSolver:  Solving for k, Initial residual = 0.000473394, Final residual = 2.7609e-05, No Iterations 2
ExecutionTime = 82.26 s  ClockTime = 82 s

forces forcesFish write:
    Sum of forces
        Total    : (0.120025 -2.78429e-06 -1.99881e-05)
        Pressure : (0.0306962 -2.18296e-07 -1.88666e-05)
        Viscous  : (0.0893291 -2.566e-06 -1.12148e-06)
    Sum of moments
        Total    : (9.25173e-09 6.30245e-06 -2.31298e-06)
        Pressure : (-1.73904e-09 5.97257e-06 -1.60815e-06)
        Viscous  : (1.09908e-08 3.29874e-07 -7.04837e-07)
    writing force and moment files.

Time = 64

smoothSolver:  Solving for Ux, Initial residual = 9.24946e-05, Final residual = 6.8896e-06, No Iterations 2
[...]

Time = 291

smoothSolver:  Solving for Ux, Initial residual = 7.19285e-07, Final residual = 3.42671e-08, No Iterations 2
smoothSolver:  Solving for Uy, Initial residual = 1.63326e-05, Final residual = 1.08486e-06, No Iterations 2
smoothSolver:  Solving for Uz, Initial residual = 1.62783e-05, Final residual = 1.07969e-06, No Iterations 2
GAMG:  Solving for p, Initial residual = 3.97436e-05, Final residual = 2.3506e-06, No Iterations 2
time step continuity errors : sum local = 2.77595e-07, global = -1.82664e-08, cumulative = 0.0012792
smoothSolver:  Solving for omega, Initial residual = 5.12353e-08, Final residual = 2.39967e-09, No Iterations 2
smoothSolver:  Solving for k, Initial residual = 1.68635e-06, Final residual = 7.39894e-08, No Iterations 2
ExecutionTime = 371.57 s  ClockTime = 371 s

forces forcesFish write:
    Sum of forces
        Total    : (0.102979 -1.18836e-05 -7.21468e-06)
        Pressure : (0.029422 -9.59245e-06 -6.68464e-06)
        Viscous  : (0.0735571 -2.29117e-06 -5.30036e-07)
    Sum of moments
        Total    : (6.9854e-09 2.17913e-06 -5.02333e-06)
        Pressure : (-2.73109e-10 1.99824e-06 -4.50564e-06)
        Viscous  : (7.25851e-09 1.80892e-07 -5.17683e-07)
    writing force and moment files.

Time = 292

smoothSolver:  Solving for Ux, Initial residual = 6.9475e-07, Final residual = 3.304e-08, No Iterations 2
smoothSolver:  Solving for Uy, Initial residual = 1.57908e-05, Final residual = 1.04854e-06, No Iterations 2
smoothSolver:  Solving for Uz, Initial residual = 1.57382e-05, Final residual = 1.04352e-06, No Iterations 2
GAMG:  Solving for p, Initial residual = 3.85191e-05, Final residual = 2.27899e-06, No Iterations 2
time step continuity errors : sum local = 2.69135e-07, global = -1.83979e-08, cumulative = 0.00127918
smoothSolver:  Solving for omega, Initial residual = 4.94008e-08, Final residual = 2.3116e-09, No Iterations 2
smoothSolver:  Solving for k, Initial residual = 1.62501e-06, Final residual = 7.11185e-08, No Iterations 2
ExecutionTime = 372.82 s  ClockTime = 373 s

forces forcesFish write:
    Sum of forces
        Total    : (0.102978 -1.18798e-05 -7.20947e-06)
        Pressure : (0.0294222 -9.58855e-06 -6.67967e-06)
        Viscous  : (0.0735559 -2.29121e-06 -5.29801e-07)
    Sum of moments
        Total    : (6.98438e-09 2.17731e-06 -5.02187e-06)
        Pressure : (-2.74275e-10 1.99651e-06 -4.50418e-06)
        Viscous  : (7.25865e-09 1.80804e-07 -5.17689e-07)
    writing force and moment files.

Time = 293

smoothSolver:  Solving for Ux, Initial residual = 6.70366e-07, Final residual = 3.18484e-08, No Iterations 2
smoothSolver:  Solving for Uy, Initial residual = 1.52635e-05, Final residual = 1.01324e-06, No Iterations 2
smoothSolver:  Solving for Uz, Initial residual = 1.52121e-05, Final residual = 1.00835e-06, No Iterations 2
GAMG:  Solving for p, Initial residual = 3.7329e-05, Final residual = 2.2046e-06, No Iterations 2
time step continuity errors : sum local = 2.60348e-07, global = -1.78648e-08, cumulative = 0.00127916
smoothSolver:  Solving for omega, Initial residual = 4.76282e-08, Final residual = 9.78543e-09, No Iterations 1
smoothSolver:  Solving for k, Initial residual = 1.57562e-06, Final residual = 6.88625e-08, No Iterations 2
ExecutionTime = 374.07 s  ClockTime = 374 s

forces forcesFish write:
    Sum of forces
        Total    : (0.102977 -1.18758e-05 -7.20431e-06)
        Pressure : (0.0294223 -9.58461e-06 -6.67474e-06)
        Viscous  : (0.0735548 -2.29124e-06 -5.29577e-07)
    Sum of moments
        Total    : (6.98338e-09 2.17551e-06 -5.0204e-06)
        Pressure : (-2.75406e-10 1.99479e-06 -4.5027e-06)
        Viscous  : (7.25878e-09 1.8072e-07 -5.17694e-07)
    writing force and moment files.

Time = 294

smoothSolver:  Solving for Ux, Initial residual = 6.46742e-07, Final residual = 3.06952e-08, No Iterations 2
smoothSolver:  Solving for Uy, Initial residual = 1.47499e-05, Final residual = 9.79076e-07, No Iterations 2
smoothSolver:  Solving for Uz, Initial residual = 1.46997e-05, Final residual = 9.74316e-07, No Iterations 2
GAMG:  Solving for p, Initial residual = 3.6169e-05, Final residual = 2.13283e-06, No Iterations 2
time step continuity errors : sum local = 2.5187e-07, global = -1.7394e-08, cumulative = 0.00127914
smoothSolver:  Solving for omega, Initial residual = 4.79469e-08, Final residual = 9.76781e-09, No Iterations 1
smoothSolver:  Solving for k, Initial residual = 1.53032e-06, Final residual = 6.67607e-08, No Iterations 2
ExecutionTime = 375.33 s  ClockTime = 375 s

forces forcesFish write:
    Sum of forces
        Total    : (0.102976 -1.18719e-05 -7.19924e-06)
        Pressure : (0.0294225 -9.58065e-06 -6.66988e-06)
        Viscous  : (0.0735537 -2.29126e-06 -5.29361e-07)
    Sum of moments
        Total    : (6.9824e-09 2.17374e-06 -5.01892e-06)
        Pressure : (-2.76505e-10 1.9931e-06 -4.50122e-06)
        Viscous  : (7.25891e-09 1.8064e-07 -5.17698e-07)
    writing force and moment files.

Time = 295

smoothSolver:  Solving for Ux, Initial residual = 6.23938e-07, Final residual = 2.95827e-08, No Iterations 2
smoothSolver:  Solving for Uy, Initial residual = 1.42523e-05, Final residual = 9.45975e-07, No Iterations 2
smoothSolver:  Solving for Uz, Initial residual = 1.42033e-05, Final residual = 9.41344e-07, No Iterations 2
GAMG:  Solving for p, Initial residual = 3.50361e-05, Final residual = 2.05695e-06, No Iterations 2
time step continuity errors : sum local = 2.42908e-07, global = -1.60385e-08, cumulative = 0.00127913
smoothSolver:  Solving for omega, Initial residual = 4.76137e-08, Final residual = 9.72158e-09, No Iterations 1
smoothSolver:  Solving for k, Initial residual = 1.48493e-06, Final residual = 6.46203e-08, No Iterations 2
ExecutionTime = 376.6 s  ClockTime = 376 s

forces forcesFish write:
    Sum of forces
        Total    : (0.102975 -1.18678e-05 -7.19423e-06)
        Pressure : (0.0294227 -9.5765e-06 -6.66508e-06)
        Viscous  : (0.0735527 -2.29128e-06 -5.29155e-07)
    Sum of moments
        Total    : (6.98144e-09 2.172e-06 -5.01739e-06)
        Pressure : (-2.77573e-10 1.99144e-06 -4.49969e-06)
        Viscous  : (7.25901e-09 1.80562e-07 -5.177e-07)
    writing force and moment files.

Time = 296

smoothSolver:  Solving for Ux, Initial residual = 6.02444e-07, Final residual = 2.85141e-08, No Iterations 2
smoothSolver:  Solving for Uy, Initial residual = 1.37712e-05, Final residual = 9.13921e-07, No Iterations 2
smoothSolver:  Solving for Uz, Initial residual = 1.37238e-05, Final residual = 9.09422e-07, No Iterations 2
GAMG:  Solving for p, Initial residual = 3.39269e-05, Final residual = 1.99317e-06, No Iterations 2
time step continuity errors : sum local = 2.35373e-07, global = -1.60474e-08, cumulative = 0.00127911
smoothSolver:  Solving for omega, Initial residual = 4.69113e-08, Final residual = 9.60472e-09, No Iterations 1
smoothSolver:  Solving for k, Initial residual = 1.43954e-06, Final residual = 6.24677e-08, No Iterations 2
ExecutionTime = 377.86 s  ClockTime = 378 s

forces forcesFish write:
    Sum of forces
        Total    : (0.102975 -1.18639e-05 -7.18927e-06)
        Pressure : (0.0294228 -9.57257e-06 -6.66031e-06)
        Viscous  : (0.0735517 -2.2913e-06 -5.28956e-07)
    Sum of moments
        Total    : (6.9805e-09 2.17026e-06 -5.01592e-06)
        Pressure : (-2.78612e-10 1.98977e-06 -4.49822e-06)
        Viscous  : (7.25911e-09 1.80489e-07 -5.17702e-07)
    writing force and moment files.

Time = 297

smoothSolver:  Solving for Ux, Initial residual = 5.81083e-07, Final residual = 2.7477e-08, No Iterations 2
smoothSolver:  Solving for Uy, Initial residual = 1.33037e-05, Final residual = 8.82761e-07, No Iterations 2
smoothSolver:  Solving for Uz, Initial residual = 1.32575e-05, Final residual = 8.78388e-07, No Iterations 2
GAMG:  Solving for p, Initial residual = 3.2848e-05, Final residual = 1.92672e-06, No Iterations 2
time step continuity errors : sum local = 2.27524e-07, global = -1.54578e-08, cumulative = 0.0012791
smoothSolver:  Solving for omega, Initial residual = 4.5983e-08, Final residual = 9.43693e-09, No Iterations 1
smoothSolver:  Solving for k, Initial residual = 1.39435e-06, Final residual = 6.03253e-08, No Iterations 2
ExecutionTime = 379.12 s  ClockTime = 379 s

forces forcesFish write:
    Sum of forces
        Total    : (0.102974 -1.186e-05 -7.18437e-06)
        Pressure : (0.029423 -9.56867e-06 -6.6556e-06)
        Viscous  : (0.0735507 -2.29131e-06 -5.28765e-07)
    Sum of moments
        Total    : (6.97958e-09 2.16855e-06 -5.01446e-06)
        Pressure : (-2.79622e-10 1.98813e-06 -4.49676e-06)
        Viscous  : (7.2592e-09 1.80418e-07 -5.17702e-07)
    writing force and moment files.

Time = 298

smoothSolver:  Solving for Ux, Initial residual = 5.60439e-07, Final residual = 2.64758e-08, No Iterations 2
smoothSolver:  Solving for Uy, Initial residual = 1.28508e-05, Final residual = 8.52557e-07, No Iterations 2
smoothSolver:  Solving for Uz, Initial residual = 1.28058e-05, Final residual = 8.48306e-07, No Iterations 2
GAMG:  Solving for p, Initial residual = 3.17984e-05, Final residual = 1.86228e-06, No Iterations 2
time step continuity errors : sum local = 2.19913e-07, global = -1.49269e-08, cumulative = 0.00127908
smoothSolver:  Solving for omega, Initial residual = 4.49157e-08, Final residual = 9.23685e-09, No Iterations 1
smoothSolver:  Solving for k, Initial residual = 1.34944e-06, Final residual = 5.82053e-08, No Iterations 2
ExecutionTime = 380.37 s  ClockTime = 380 s

forces forcesFish write:
    Sum of forces
        Total    : (0.102973 -1.18561e-05 -7.17953e-06)
        Pressure : (0.0294231 -9.5648e-06 -6.65095e-06)
        Viscous  : (0.0735498 -2.29132e-06 -5.28582e-07)
    Sum of moments
        Total    : (6.97867e-09 2.16685e-06 -5.01302e-06)
        Pressure : (-2.80605e-10 1.9865e-06 -4.49532e-06)
        Viscous  : (7.25928e-09 1.8035e-07 -5.17701e-07)
    writing force and moment files.

Time = 299

smoothSolver:  Solving for Ux, Initial residual = 5.40496e-07, Final residual = 2.55092e-08, No Iterations 2
smoothSolver:  Solving for Uy, Initial residual = 1.2412e-05, Final residual = 8.23284e-07, No Iterations 2
smoothSolver:  Solving for Uz, Initial residual = 1.23683e-05, Final residual = 8.19149e-07, No Iterations 2
GAMG:  Solving for p, Initial residual = 3.07784e-05, Final residual = 1.79979e-06, No Iterations 2
time step continuity errors : sum local = 2.12533e-07, global = -1.44458e-08, cumulative = 0.00127907
smoothSolver:  Solving for omega, Initial residual = 4.37654e-08, Final residual = 9.01682e-09, No Iterations 1
smoothSolver:  Solving for k, Initial residual = 1.30488e-06, Final residual = 5.61145e-08, No Iterations 2
ExecutionTime = 381.61 s  ClockTime = 381 s

forces forcesFish write:
    Sum of forces
        Total    : (0.102972 -1.18523e-05 -7.17477e-06)
        Pressure : (0.0294233 -9.561e-06 -6.64636e-06)
        Viscous  : (0.0735489 -2.29132e-06 -5.28405e-07)
    Sum of moments
        Total    : (6.97778e-09 2.16518e-06 -5.01159e-06)
        Pressure : (-2.8156e-10 1.9849e-06 -4.4939e-06)
        Viscous  : (7.25934e-09 1.80285e-07 -5.17699e-07)
    writing force and moment files.

Time = 300

smoothSolver:  Solving for Ux, Initial residual = 5.21236e-07, Final residual = 2.45761e-08, No Iterations 2
smoothSolver:  Solving for Uy, Initial residual = 1.19869e-05, Final residual = 7.94918e-07, No Iterations 2
smoothSolver:  Solving for Uz, Initial residual = 1.19444e-05, Final residual = 7.90896e-07, No Iterations 2
GAMG:  Solving for p, Initial residual = 2.97888e-05, Final residual = 1.73918e-06, No Iterations 2
time step continuity errors : sum local = 2.05374e-07, global = -1.40041e-08, cumulative = 0.00127905
smoothSolver:  Solving for omega, Initial residual = 4.25692e-08, Final residual = 8.78485e-09, No Iterations 1
smoothSolver:  Solving for k, Initial residual = 1.26074e-06, Final residual = 5.40574e-08, No Iterations 2
ExecutionTime = 384.47 s  ClockTime = 384 s

forces forcesFish write:
    Sum of forces
        Total    : (0.102971 -1.18486e-05 -7.17008e-06)
        Pressure : (0.0294234 -9.55727e-06 -6.64184e-06)
        Viscous  : (0.0735481 -2.29132e-06 -5.28235e-07)
    Sum of moments
        Total    : (6.97692e-09 2.16353e-06 -5.0102e-06)
        Pressure : (-2.82486e-10 1.98331e-06 -4.49251e-06)
        Viscous  : (7.2594e-09 1.80222e-07 -5.17695e-07)
    writing force and moment files.

Time = 301

smoothSolver:  Solving for Ux, Initial residual = 5.02638e-07, Final residual = 2.36754e-08, No Iterations 2
smoothSolver:  Solving for Uy, Initial residual = 1.15751e-05, Final residual = 7.67436e-07, No Iterations 2
smoothSolver:  Solving for Uz, Initial residual = 1.15338e-05, Final residual = 7.63524e-07, No Iterations 2
GAMG:  Solving for p, Initial residual = 2.88293e-05, Final residual = 1.68039e-06, No Iterations 2
time step continuity errors : sum local = 1.9843e-07, global = -1.35917e-08, cumulative = 0.00127904
smoothSolver:  Solving for omega, Initial residual = 4.13515e-08, Final residual = 8.54623e-09, No Iterations 1
smoothSolver:  Solving for k, Initial residual = 1.21705e-06, Final residual = 5.20368e-08, No Iterations 2
ExecutionTime = 385.73 s  ClockTime = 385 s

forces forcesFish write:
    Sum of forces
        Total    : (0.102971 -1.1845e-05 -7.16547e-06)
        Pressure : (0.0294235 -9.55364e-06 -6.6374e-06)
        Viscous  : (0.0735472 -2.29132e-06 -5.28072e-07)
    Sum of moments
        Total    : (6.97607e-09 2.16191e-06 -5.00885e-06)
        Pressure : (-2.83383e-10 1.98175e-06 -4.49115e-06)
        Viscous  : (7.25946e-09 1.80162e-07 -5.17691e-07)
    writing force and moment files.

Time = 302

smoothSolver:  Solving for Ux, Initial residual = 4.84682e-07, Final residual = 2.28061e-08, No Iterations 2
smoothSolver:  Solving for Uy, Initial residual = 1.11763e-05, Final residual = 7.40817e-07, No Iterations 2
smoothSolver:  Solving for Uz, Initial residual = 1.11361e-05, Final residual = 7.37011e-07, No Iterations 2
GAMG:  Solving for p, Initial residual = 2.78989e-05, Final residual = 1.62336e-06, No Iterations 2
time step continuity errors : sum local = 1.91694e-07, global = -1.31988e-08, cumulative = 0.00127903
smoothSolver:  Solving for omega, Initial residual = 4.01288e-08, Final residual = 8.30452e-09, No Iterations 1
smoothSolver:  Solving for k, Initial residual = 1.17385e-06, Final residual = 5.00557e-08, No Iterations 2
ExecutionTime = 387.01 s  ClockTime = 387 s

forces forcesFish write:
    Sum of forces
        Total    : (0.10297 -1.18414e-05 -7.16095e-06)
        Pressure : (0.0294237 -9.55013e-06 -6.63303e-06)
        Viscous  : (0.0735464 -2.29132e-06 -5.27914e-07)
    Sum of moments
        Total    : (6.97525e-09 2.16032e-06 -5.00753e-06)
        Pressure : (-2.84252e-10 1.98022e-06 -4.48985e-06)
        Viscous  : (7.2595e-09 1.80105e-07 -5.17686e-07)
    writing force and moment files.

Time = 303

smoothSolver:  Solving for Ux, Initial residual = 4.67349e-07, Final residual = 2.19671e-08, No Iterations 2
smoothSolver:  Solving for Uy, Initial residual = 1.07901e-05, Final residual = 7.15037e-07, No Iterations 2
smoothSolver:  Solving for Uz, Initial residual = 1.0751e-05, Final residual = 7.11334e-07, No Iterations 2
GAMG:  Solving for p, Initial residual = 2.6996e-05, Final residual = 1.56804e-06, No Iterations 2
time step continuity errors : sum local = 1.85161e-07, global = -1.28168e-08, cumulative = 0.00127901
smoothSolver:  Solving for omega, Initial residual = 3.89119e-08, Final residual = 8.06209e-09, No Iterations 1
smoothSolver:  Solving for k, Initial residual = 1.1312e-06, Final residual = 4.81168e-08, No Iterations 2
ExecutionTime = 388.27 s  ClockTime = 388 s

forces forcesFish write:
    Sum of forces
        Total    : (0.102969 -1.1838e-05 -7.15651e-06)
        Pressure : (0.0294238 -9.54673e-06 -6.62875e-06)
        Viscous  : (0.0735457 -2.29131e-06 -5.27763e-07)
    Sum of moments
        Total    : (6.97445e-09 2.15876e-06 -5.00626e-06)
        Pressure : (-2.85092e-10 1.97871e-06 -4.48858e-06)
        Viscous  : (7.25954e-09 1.8005e-07 -5.17681e-07)
    writing force and moment files.

Time = 304

smoothSolver:  Solving for Ux, Initial residual = 4.50616e-07, Final residual = 2.11576e-08, No Iterations 2
smoothSolver:  Solving for Uy, Initial residual = 1.04161e-05, Final residual = 6.90071e-07, No Iterations 2
smoothSolver:  Solving for Uz, Initial residual = 1.03781e-05, Final residual = 6.86469e-07, No Iterations 2
GAMG:  Solving for p, Initial residual = 2.61193e-05, Final residual = 1.51438e-06, No Iterations 2
time step continuity errors : sum local = 1.78823e-07, global = -1.24386e-08, cumulative = 0.001279
smoothSolver:  Solving for omega, Initial residual = 3.77078e-08, Final residual = 7.82057e-09, No Iterations 1
smoothSolver:  Solving for k, Initial residual = 1.08917e-06, Final residual = 4.6223e-08, No Iterations 2
ExecutionTime = 389.52 s  ClockTime = 389 s

forces forcesFish write:
    Sum of forces
        Total    : (0.102969 -1.18348e-05 -7.15217e-06)
        Pressure : (0.0294239 -9.54347e-06 -6.62456e-06)
        Viscous  : (0.0735449 -2.2913e-06 -5.27616e-07)
    Sum of moments
        Total    : (6.97366e-09 2.15723e-06 -5.00504e-06)
        Pressure : (-2.85905e-10 1.97724e-06 -4.48737e-06)
        Viscous  : (7.25957e-09 1.79996e-07 -5.17674e-07)
    writing force and moment files.

Time = 305

smoothSolver:  Solving for Ux, Initial residual = 4.34465e-07, Final residual = 2.03767e-08, No Iterations 2
smoothSolver:  Solving for Uy, Initial residual = 1.0054e-05, Final residual = 6.65895e-07, No Iterations 2
smoothSolver:  Solving for Uz, Initial residual = 1.0017e-05, Final residual = 6.62393e-07, No Iterations 2
GAMG:  Solving for p, Initial residual = 2.52679e-05, Final residual = 1.46235e-06, No Iterations 2
time step continuity errors : sum local = 1.72677e-07, global = -1.20582e-08, cumulative = 0.00127899
smoothSolver:  Solving for omega, Initial residual = 3.6521e-08, Final residual = 7.58106e-09, No Iterations 1
smoothSolver:  Solving for k, Initial residual = 1.04787e-06, Final residual = 4.43769e-08, No Iterations 2
ExecutionTime = 390.78 s  ClockTime = 390 s

forces forcesFish write:
    Sum of forces
        Total    : (0.102968 -1.18316e-05 -7.14793e-06)
        Pressure : (0.0294241 -9.54034e-06 -6.62046e-06)
        Viscous  : (0.0735442 -2.29129e-06 -5.27475e-07)
    Sum of moments
        Total    : (6.9729e-09 2.15574e-06 -5.00387e-06)
        Pressure : (-2.86691e-10 1.97579e-06 -4.4862e-06)
        Viscous  : (7.25959e-09 1.79945e-07 -5.17667e-07)
    writing force and moment files.

Time = 306

smoothSolver:  Solving for Ux, Initial residual = 4.18874e-07, Final residual = 1.96233e-08, No Iterations 2
smoothSolver:  Solving for Uy, Initial residual = 9.70344e-06, Final residual = 6.42488e-07, No Iterations 2
smoothSolver:  Solving for Uz, Initial residual = 9.66746e-06, Final residual = 6.39082e-07, No Iterations 2
GAMG:  Solving for p, Initial residual = 2.44407e-05, Final residual = 1.41189e-06, No Iterations 2
time step continuity errors : sum local = 1.66718e-07, global = -1.1672e-08, cumulative = 0.00127898
smoothSolver:  Solving for omega, Initial residual = 3.53546e-08, Final residual = 7.34438e-09, No Iterations 1
smoothSolver:  Solving for k, Initial residual = 1.0074e-06, Final residual = 4.25808e-08, No Iterations 2
ExecutionTime = 392.04 s  ClockTime = 392 s


SIMPLE solution converged in 306 iterations

forces forcesFish write:
    Sum of forces
        Total    : (0.102968 -1.18286e-05 -7.14379e-06)
        Pressure : (0.0294242 -9.53734e-06 -6.61645e-06)
        Viscous  : (0.0735435 -2.29127e-06 -5.27339e-07)
    Sum of moments
        Total    : (6.97216e-09 2.15428e-06 -5.00274e-06)
        Pressure : (-2.87451e-10 1.97438e-06 -4.48509e-06)
        Viscous  : (7.25961e-09 1.79896e-07 -5.17659e-07)
    writing force and moment files.

End

