/*---------------------------------------------------------------------------*\
| =========                 |                                                 |
| \\      /  F ield         | OpenFOAM: The Open Source CFD Toolbox           |
|  \\    /   O peration     | Version:  2512                                  |
|   \\  /    A nd           | Website:  www.openfoam.com                      |
|    \\/     M anipulation  |                                                 |
\*---------------------------------------------------------------------------*/
Build  : _bd2b6720-20260127 OPENFOAM=2512 version=2512
Arch   : "LSB;label=32;scalar=64"
Exec   : simpleFoam
Date   : Mar 27 2026
Time   : 17:16:35
Host   : mathias-laptop
PID    : 210452
I/O    : uncollated
Case   : /home/mat/OpenFOAM/mat-run/speed_sweep_runs/U_1p0
nProcs : 1
trapFpe: Floating point exception trapping enabled (FOAM_SIGFPE).
memory pool : not available
fileModificationChecking : Monitoring run-time modified files using timeStampMaster (fileModificationSkew 5, maxFileModificationPolls 20)
allowSystemOperations : Allowing user-supplied system call operations

// * * * * * * * * * * * * * * * * * * * * * * * * * * * * * * * * * * * * * //
Create time

Create mesh for time = 0


SIMPLE: convergence criteria
    field p	 tolerance 0.0001
    field U	 tolerance 1e-05
    field "(k|omega)"	 tolerance 1e-05

Reading field p

Reading field U

Reading/calculating face flux field phi

Selecting incompressible transport model Newtonian
Selecting turbulence model type RAS
Selecting RAS turbulence model kOmegaSST
Selecting patchDistMethod meshWave
RAS
{
    RASModel        kOmegaSST;
    turbulence      on;
    printCoeffs     on;
    alphaK1         0.85;
    alphaK2         1;
    alphaOmega1     0.5;
    alphaOmega2     0.856;
    gamma1          0.555556;
    gamma2          0.44;
    beta1           0.075;
    beta2           0.0828;
    betaStar        0.09;
    a1              0.31;
    b1              1;
    c1              10;
    F3              false;
    decayControl    false;
    kInf            0;
    omegaInf        0;
}

No MRF models present

No finite volume options present

Starting time loop

forces forcesFish:
    rho: rhoInf
    Freestream density (rhoInf) set to 1000
    Not including porosity effects

Time = 1

smoothSolver:  Solving for Ux, Initial residual = 1, Final residual = 0.0965077, No Iterations 2
smoothSolver:  Solving for Uy, Initial residual = 1, Final residual = 0.0560127, No Iterations 3
smoothSolver:  Solving for Uz, Initial residual = 1, Final residual = 0.0952279, No Iterations 2
GAMG:  Solving for p, Initial residual = 1, Final residual = 0.049932, No Iterations 5
time step continuity errors : sum local = 6.80594e-05, global = -1.08752e-05, cumulative = -1.08752e-05
smoothSolver:  Solving for omega, Initial residual = 0.00637945, Final residual = 0.000261237, No Iterations 1
bounding omega, min: -9.22833 max: 11363.5 average: 125.21
smoothSolver:  Solving for k, Initial residual = 1, Final residual = 0.0318554, No Iterations 1
ExecutionTime = 3.02 s  ClockTime = 4 s

forces forcesFish write:
    Sum of forces
        Total    : (18.2323 -0.343973 -0.0825978)
        Pressure : (17.7687 -0.343678 -0.0825443)
        Viscous  : (0.463677 -0.000294495 -5.35342e-05)
    Sum of moments
        Total    : (0.00226 0.020461 0.243069)
        Pressure : (0.00225636 0.0204973 0.240467)
        Viscous  : (3.64469e-06 -3.63547e-05 0.002602)
    writing force and moment files.

Time = 2

smoothSolver:  Solving for Ux, Initial residual = 0.0192089, Final residual = 0.00106117, No Iterations 2
smoothSolver:  Solving for Uy, Initial residual = 0.257708, Final residual = 0.0176977, No Iterations 2
smoothSolver:  Solving for Uz, Initial residual = 0.314928, Final residual = 0.0222653, No Iterations 2
GAMG:  Solving for p, Initial residual = 0.135883, Final residual = 0.0111534, No Iterations 3
time step continuity errors : sum local = 0.000144469, global = -9.39274e-06, cumulative = -2.02679e-05
smoothSolver:  Solving for omega, Initial residual = 0.00390577, Final residual = 0.000149149, No Iterations 1
smoothSolver:  Solving for k, Initial residual = 0.33015, Final residual = 0.0108086, No Iterations 1
ExecutionTime = 3.89 s  ClockTime = 4 s

forces forcesFish write:
    Sum of forces
        Total    : (24.2171 -0.00922233 -0.126693)
        Pressure : (23.7701 -0.0090542 -0.126729)
        Viscous  : (0.446993 -0.000168124 3.63675e-05)
    Sum of moments
        Total    : (0.00346356 0.0309883 0.393816)
        Pressure : (0.00346153 0.0310606 0.391471)
        Viscous  : (2.03344e-06 -7.22168e-05 0.00234533)
    writing force and moment files.

Time = 3

smoothSolver:  Solving for Ux, Initial residual = 0.00634205, Final residual = 0.000357255, No Iterations 2
smoothSolver:  Solving for Uy, Initial residual = 0.164689, Final residual = 0.0113458, No Iterations 2
smoothSolver:  Solving for Uz, Initial residual = 0.204672, Final residual = 0.0145016, No Iterations 2
GAMG:  Solving for p, Initial residual = 0.435412, Final residual = 0.0432798, No Iterations 2
time step continuity errors : sum local = 0.000243201, global = -1.06374e-05, cumulative = -3.09053e-05
smoothSolver:  Solving for omega, Initial residual = 0.00275176, Final residual = 0.000113141, No Iterations 1
smoothSolver:  Solving for k, Initial residual = 0.18371, Final residual = 0.0061905, No Iterations 1
ExecutionTime = 4.71 s  ClockTime = 5 s

forces forcesFish write:
    Sum of forces
        Total    : (23.2679 0.236238 -0.113505)
        Pressure : (22.8377 0.236076 -0.11367)
        Viscous  : (0.430195 0.000161863 0.000165771)
    Sum of moments
        Total    : (0.00344057 0.0308209 0.414943)
        Pressure : (0.00344089 0.0309385 0.412902)
        Viscous  : (-3.14556e-07 -0.000117551 0.00204094)
    writing force and moment files.

Time = 4

smoothSolver:  Solving for Ux, Initial residual = 0.00348632, Final residual = 0.000193207, No Iterations 2
smoothSolver:  Solving for Uy, Initial residual = 0.117004, Final residual = 0.00797415, No Iterations 2
smoothSolver:  Solving for Uz, Initial residual = 0.131546, Final residual = 0.0092158, No Iterations 2
GAMG:  Solving for p, Initial residual = 0.181596, Final residual = 0.00743912, No Iterations 3
time step continuity errors : sum local = 0.000137379, global = -8.19714e-06, cumulative = -3.91024e-05
smoothSolver:  Solving for omega, Initial residual = 0.0020608, Final residual = 9.04375e-05, No Iterations 1
smoothSolver:  Solving for k, Initial residual = 0.119064, Final residual = 0.00410685, No Iterations 1
ExecutionTime = 5.58 s  ClockTime = 6 s

forces forcesFish write:
    Sum of forces
        Total    : (18.2062 0.448647 -0.0783801)
        Pressure : (17.7874 0.448329 -0.0786757)
        Viscous  : (0.418817 0.000317565 0.000295596)
    Sum of moments
        Total    : (0.00288647 0.0240606 0.354624)
        Pressure : (0.00288905 0.0242196 0.352819)
        Viscous  : (-2.58304e-06 -0.000159005 0.00180465)
    writing force and moment files.

Time = 5

smoothSolver:  Solving for Ux, Initial residual = 0.00214163, Final residual = 0.000111729, No Iterations 2
smoothSolver:  Solving for Uy, Initial residual = 0.0684819, Final residual = 0.00456412, No Iterations 2
smoothSolver:  Solving for Uz, Initial residual = 0.0798577, Final residual = 0.00544279, No Iterations 2
GAMG:  Solving for p, Initial residual = 0.084243, Final residual = 0.00411436, No Iterations 3
time step continuity errors : sum local = 0.000168158, global = -3.76195e-06, cumulative = -4.28644e-05
smoothSolver:  Solving for omega, Initial residual = 0.00159873, Final residual = 7.37433e-05, No Iterations 1
smoothSolver:  Solving for k, Initial residual = 0.0836288, Final residual = 0.00293786, No Iterations 1
ExecutionTime = 6.46 s  ClockTime = 7 s

forces forcesFish write:
    Sum of forces
        Total    : (11.5672 0.57186 -0.0366597)
        Pressure : (11.1545 0.571233 -0.0370623)
        Viscous  : (0.412716 0.00062668 0.000402513)
    Sum of moments
        Total    : (0.00210163 0.0145714 0.245615)
        Pressure : (0.00210605 0.014761 0.243901)
        Viscous  : (-4.41325e-06 -0.000189629 0.00171412)
    writing force and moment files.

Time = 6

smoothSolver:  Solving for Ux, Initial residual = 0.00147035, Final residual = 6.02703e-05, No Iterations 2
smoothSolver:  Solving for Uy, Initial residual = 0.036745, Final residual = 0.0020177, No Iterations 2
smoothSolver:  Solving for Uz, Initial residual = 0.045644, Final residual = 0.00258145, No Iterations 2
GAMG:  Solving for p, Initial residual = 0.0461735, Final residual = 0.00258801, No Iterations 3
time step continuity errors : sum local = 0.000163676, global = 2.54839e-06, cumulative = -4.0316e-05
smoothSolver:  Solving for omega, Initial residual = 0.00126925, Final residual = 6.04012e-05, No Iterations 1
smoothSolver:  Solving for k, Initial residual = 0.0620716, Final residual = 0.00221494, No Iterations 1
ExecutionTime = 7.34 s  ClockTime = 8 s

forces forcesFish write:
    Sum of forces
        Total    : (5.31507 0.5981 -0.00639829)
        Pressure : (4.90338 0.5972 -0.0068869)
        Viscous  : (0.411686 0.000899393 0.000488615)
    Sum of moments
        Total    : (0.00140653 0.00613366 0.125737)
        Pressure : (0.00141224 0.0063455 0.123996)
        Viscous  : (-5.7123e-06 -0.000211841 0.0017409)
    writing force and moment files.

Time = 7

smoothSolver:  Solving for Ux, Initial residual = 0.00123578, Final residual = 3.62984e-05, No Iterations 2
smoothSolver:  Solving for Uy, Initial residual = 0.028496, Final residual = 0.00115905, No Iterations 2
smoothSolver:  Solving for Uz, Initial residual = 0.0388038, Final residual = 0.00148382, No Iterations 2
GAMG:  Solving for p, Initial residual = 0.0298313, Final residual = 0.0016286, No Iterations 3
time step continuity errors : sum local = 0.00013203, global = 8.6674e-06, cumulative = -3.16486e-05
smoothSolver:  Solving for omega, Initial residual = 0.00102752, Final residual = 4.98806e-05, No Iterations 1
smoothSolver:  Solving for k, Initial residual = 0.0480661, Final residual = 0.00174145, No Iterations 1
ExecutionTime = 8.22 s  ClockTime = 9 s

forces forcesFish write:
    Sum of forces
        Total    : (0.632929 0.546406 0.00343377)
        Pressure : (0.218463 0.545441 0.00288188)
        Viscous  : (0.414466 0.00096535 0.000551888)
    Sum of moments
        Total    : (0.000973089 0.00100849 0.0257145)
        Pressure : (0.000979851 0.00123398 0.0238646)
        Viscous  : (-6.76153e-06 -0.000225487 0.00184986)
    writing force and moment files.

Time = 8

smoothSolver:  Solving for Ux, Initial residual = 0.00121011, Final residual = 3.83348e-05, No Iterations 2
smoothSolver:  Solving for Uy, Initial residual = 0.0283813, Final residual = 0.00140385, No Iterations 2
smoothSolver:  Solving for Uz, Initial residual = 0.0465835, Final residual = 0.0023039, No Iterations 2
GAMG:  Solving for p, Initial residual = 0.0255767, Final residual = 0.00237495, No Iterations 2
time step continuity errors : sum local = 0.000217559, global = 1.38372e-05, cumulative = -1.78114e-05
smoothSolver:  Solving for omega, Initial residual = 0.000846644, Final residual = 4.18392e-05, No Iterations 1
smoothSolver:  Solving for k, Initial residual = 0.038465, Final residual = 0.00141732, No Iterations 1
ExecutionTime = 9.05 s  ClockTime = 10 s

forces forcesFish write:
    Sum of forces
        Total    : (-1.85992 0.457706 0.00483785)
        Pressure : (-2.2792 0.45695 0.00424421)
        Viscous  : (0.419284 0.000756858 0.000593641)
    Sum of moments
        Total    : (0.000706482 -0.00143 -0.0325223)
        Pressure : (0.00071401 -0.0011959 -0.0345115)
        Viscous  : (-7.52772e-06 -0.000234092 0.00198919)
    writing force and moment files.

Time = 9

smoothSolver:  Solving for Ux, Initial residual = 0.00126512, Final residual = 4.62725e-05, No Iterations 2
smoothSolver:  Solving for Uy, Initial residual = 0.0248366, Final residual = 0.00131568, No Iterations 2
smoothSolver:  Solving for Uz, Initial residual = 0.0497866, Final residual = 0.00268348, No Iterations 2
GAMG:  Solving for p, Initial residual = 0.0280549, Final residual = 0.00211479, No Iterations 2
time step continuity errors : sum local = 0.000198783, global = 2.01057e-05, cumulative = 2.29429e-06
smoothSolver:  Solving for omega, Initial residual = 0.000707839, Final residual = 3.56004e-05, No Iterations 1
smoothSolver:  Solving for k, Initial residual = 0.0316072, Final residual = 0.00118584, No Iterations 1
ExecutionTime = 9.88 s  ClockTime = 10 s

forces forcesFish write:
    Sum of forces
        Total    : (-2.63926 0.351467 -0.0120561)
        Pressure : (-3.06355 0.351036 -0.0126517)
        Viscous  : (0.424287 0.000430639 0.000595638)
    Sum of moments
        Total    : (0.000741778 -0.000504167 -0.0550671)
        Pressure : (0.000749853 -0.000271343 -0.0572008)
        Viscous  : (-8.07504e-06 -0.000232824 0.00213366)
    writing force and moment files.

Time = 10

smoothSolver:  Solving for Ux, Initial residual = 0.00130368, Final residual = 5.02208e-05, No Iterations 2
smoothSolver:  Solving for Uy, Initial residual = 0.0194463, Final residual = 0.00101817, No Iterations 2
smoothSolver:  Solving for Uz, Initial residual = 0.0464553, Final residual = 0.0024876, No Iterations 2
GAMG:  Solving for p, Initial residual = 0.0319453, Final residual = 0.00248933, No Iterations 2
time step continuity errors : sum local = 0.000225454, global = 2.57769e-05, cumulative = 2.80712e-05
smoothSolver:  Solving for omega, Initial residual = 0.00059901, Final residual = 3.07128e-05, No Iterations 1
smoothSolver:  Solving for k, Initial residual = 0.0265189, Final residual = 0.00101323, No Iterations 1
ExecutionTime = 10.76 s  ClockTime = 11 s

forces forcesFish write:
    Sum of forces
        Total    : (-2.22248 0.239795 -0.0373929)
        Pressure : (-2.65046 0.239652 -0.0379654)
        Viscous  : (0.427978 0.000143739 0.00057259)
    Sum of moments
        Total    : (0.000945794 0.00226795 -0.050779)
        Pressure : (0.000954242 0.00249446 -0.0530495)
        Viscous  : (-8.44814e-06 -0.000226511 0.00227048)
    writing force and moment files.

Time = 11

smoothSolver:  Solving for Ux, Initial residual = 0.00126961, Final residual = 4.79037e-05, No Iterations 2
smoothSolver:  Solving for Uy, Initial residual = 0.0143994, Final residual = 0.000692609, No Iterations 2
smoothSolver:  Solving for Uz, Initial residual = 0.0394447, Final residual = 0.00195014, No Iterations 2
GAMG:  Solving for p, Initial residual = 0.0336946, Final residual = 0.00281251, No Iterations 2
time step continuity errors : sum local = 0.00023464, global = 2.88363e-05, cumulative = 5.69075e-05
smoothSolver:  Solving for omega, Initial residual = 0.000511861, Final residual = 2.68066e-05, No Iterations 1
smoothSolver:  Solving for k, Initial residual = 0.0226073, Final residual = 0.000878634, No Iterations 1
ExecutionTime = 11.6 s  ClockTime = 12 s

forces forcesFish write:
    Sum of forces
        Total    : (-1.13682 0.12294 -0.0623316)
        Pressure : (-1.56637 0.122935 -0.0628745)
        Viscous  : (0.429543 4.86085e-06 0.000542826)
    Sum of moments
        Total    : (0.0012034 0.0054435 -0.0318542)
        Pressure : (0.0012121 0.00566101 -0.0342402)
        Viscous  : (-8.69739e-06 -0.000217508 0.00238596)
    writing force and moment files.

Time = 12

smoothSolver:  Solving for Ux, Initial residual = 0.00116194, Final residual = 4.03087e-05, No Iterations 2
smoothSolver:  Solving for Uy, Initial residual = 0.0110132, Final residual = 0.000431007, No Iterations 2
smoothSolver:  Solving for Uz, Initial residual = 0.0325352, Final residual = 0.00131111, No Iterations 2
GAMG:  Solving for p, Initial residual = 0.0342225, Final residual = 0.00295313, No Iterations 2
time step continuity errors : sum local = 0.000219013, global = 2.91257e-05, cumulative = 8.60332e-05
smoothSolver:  Solving for omega, Initial residual = 0.000440484, Final residual = 2.34984e-05, No Iterations 1
smoothSolver:  Solving for k, Initial residual = 0.0195166, Final residual = 0.000770551, No Iterations 1
ExecutionTime = 12.44 s  ClockTime = 13 s

forces forcesFish write:
    Sum of forces
        Total    : (0.16751 0.0136425 -0.0770232)
        Pressure : (-0.261417 0.0136604 -0.0775215)
        Viscous  : (0.428926 -1.7923e-05 0.000498372)
    Sum of moments
        Total    : (0.00140575 0.00738605 -0.00873934)
        Pressure : (0.00141476 0.00759508 -0.0112187)
        Viscous  : (-9.00733e-06 -0.000209032 0.00247931)
    writing force and moment files.

Time = 13

smoothSolver:  Solving for Ux, Initial residual = 0.001006, Final residual = 3.01172e-05, No Iterations 2
smoothSolver:  Solving for Uy, Initial residual = 0.00984615, Final residual = 0.000349384, No Iterations 2
smoothSolver:  Solving for Uz, Initial residual = 0.0300477, Final residual = 0.00103353, No Iterations 2
GAMG:  Solving for p, Initial residual = 0.0343854, Final residual = 0.00284646, No Iterations 2
time step continuity errors : sum local = 0.000184483, global = 2.69392e-05, cumulative = 0.000112972
smoothSolver:  Solving for omega, Initial residual = 0.000381313, Final residual = 2.06529e-05, No Iterations 1
smoothSolver:  Solving for k, Initial residual = 0.017019, Final residual = 0.000681364, No Iterations 1
ExecutionTime = 13.27 s  ClockTime = 14 s

forces forcesFish write:
    Sum of forces
        Total    : (1.34433 -0.0693028 -0.0765266)
        Pressure : (0.917828 -0.069427 -0.0769837)
        Viscous  : (0.426498 0.000124226 0.000457051)
    Sum of moments
        Total    : (0.00147207 0.00732068 0.0119823)
        Pressure : (0.00148129 0.00751926 0.0094307)
        Viscous  : (-9.22343e-06 -0.000198583 0.00255159)
    writing force and moment files.

Time = 14

smoothSolver:  Solving for Ux, Initial residual = 0.000856668, Final residual = 2.21395e-05, No Iterations 2
smoothSolver:  Solving for Uy, Initial residual = 0.0100041, Final residual = 0.000388833, No Iterations 2
smoothSolver:  Solving for Uz, Initial residual = 0.0308347, Final residual = 0.00114169, No Iterations 2
GAMG:  Solving for p, Initial residual = 0.0357391, Final residual = 0.00256393, No Iterations 2
time step continuity errors : sum local = 0.000146593, global = 2.34652e-05, cumulative = 0.000136438
smoothSolver:  Solving for omega, Initial residual = 0.000331803, Final residual = 1.81923e-05, No Iterations 1
smoothSolver:  Solving for k, Initial residual = 0.0149625, Final residual = 0.000606304, No Iterations 1
ExecutionTime = 14.13 s  ClockTime = 15 s

forces forcesFish write:
    Sum of forces
        Total    : (2.19071 -0.109783 -0.0621484)
        Pressure : (1.76777 -0.110141 -0.0625701)
        Viscous  : (0.422945 0.000358293 0.000421673)
    Sum of moments
        Total    : (0.00139303 0.00544299 0.0276539)
        Pressure : (0.00140241 0.00563076 0.0250514)
        Viscous  : (-9.37503e-06 -0.000187776 0.00260246)
    writing force and moment files.

Time = 15

smoothSolver:  Solving for Ux, Initial residual = 0.000761206, Final residual = 1.75886e-05, No Iterations 2
smoothSolver:  Solving for Uy, Initial residual = 0.0100575, Final residual = 0.000412529, No Iterations 2
smoothSolver:  Solving for Uz, Initial residual = 0.0309537, Final residual = 0.0012529, No Iterations 2
GAMG:  Solving for p, Initial residual = 0.0384356, Final residual = 0.00231435, No Iterations 2
time step continuity errors : sum local = 0.000121207, global = 1.91334e-05, cumulative = 0.000155571
smoothSolver:  Solving for omega, Initial residual = 0.000289982, Final residual = 1.60959e-05, No Iterations 1
smoothSolver:  Solving for k, Initial residual = 0.0132431, Final residual = 0.0005424, No Iterations 1
ExecutionTime = 14.96 s  ClockTime = 15 s

forces forcesFish write:
    Sum of forces
        Total    : (2.64206 -0.10398 -0.0403509)
        Pressure : (2.22308 -0.104606 -0.0407532)
        Viscous  : (0.418982 0.00062616 0.000402254)
    Sum of moments
        Total    : (0.00121446 0.00270674 0.0380768)
        Pressure : (0.00122392 0.00288778 0.0354381)
        Viscous  : (-9.46478e-06 -0.000181037 0.00263875)
    writing force and moment files.

Time = 16

smoothSolver:  Solving for Ux, Initial residual = 0.000698698, Final residual = 1.54625e-05, No Iterations 2
smoothSolver:  Solving for Uy, Initial residual = 0.00957416, Final residual = 0.000379707, No Iterations 2
smoothSolver:  Solving for Uz, Initial residual = 0.029472, Final residual = 0.00119053, No Iterations 2
GAMG:  Solving for p, Initial residual = 0.0406843, Final residual = 0.00236903, No Iterations 2
time step continuity errors : sum local = 0.000119934, global = 1.39246e-05, cumulative = 0.000169496
smoothSolver:  Solving for omega, Initial residual = 0.000254351, Final residual = 1.43152e-05, No Iterations 1
smoothSolver:  Solving for k, Initial residual = 0.0117888, Final residual = 0.000487575, No Iterations 1
ExecutionTime = 15.8 s  ClockTime = 16 s

forces forcesFish write:
    Sum of forces
        Total    : (2.76232 -0.063162 -0.0178584)
        Pressure : (2.34719 -0.0640264 -0.0182539)
        Viscous  : (0.415131 0.000864331 0.000395562)
    Sum of moments
        Total    : (0.00099612 7.92706e-05 0.0443102)
        Pressure : (0.00100572 0.000256795 0.0416475)
        Viscous  : (-9.59663e-06 -0.000177525 0.00266267)
    writing force and moment files.

Time = 17

smoothSolver:  Solving for Ux, Initial residual = 0.000643578, Final residual = 1.42017e-05, No Iterations 2
smoothSolver:  Solving for Uy, Initial residual = 0.0085296, Final residual = 0.000304166, No Iterations 2
smoothSolver:  Solving for Uz, Initial residual = 0.0262976, Final residual = 0.000981155, No Iterations 2
GAMG:  Solving for p, Initial residual = 0.0397659, Final residual = 0.00240417, No Iterations 2
time step continuity errors : sum local = 0.000122945, global = 7.33972e-06, cumulative = 0.000176835
smoothSolver:  Solving for omega, Initial residual = 0.000223546, Final residual = 1.27206e-05, No Iterations 1
smoothSolver:  Solving for k, Initial residual = 0.0105473, Final residual = 0.000440368, No Iterations 1
ExecutionTime = 16.65 s  ClockTime = 17 s

forces forcesFish write:
    Sum of forces
        Total    : (2.67756 -0.00165438 0.00292339)
        Pressure : (2.26585 -0.00269323 0.00252494)
        Viscous  : (0.411713 0.00103885 0.000398444)
    Sum of moments
        Total    : (0.000761413 -0.00208555 0.0477965)
        Pressure : (0.000771207 -0.00190864 0.0451169)
        Viscous  : (-9.79348e-06 -0.000176914 0.00267963)
    writing force and moment files.

Time = 18

smoothSolver:  Solving for Ux, Initial residual = 0.00059198, Final residual = 1.3111e-05, No Iterations 2
smoothSolver:  Solving for Uy, Initial residual = 0.00733449, Final residual = 0.000220833, No Iterations 2
smoothSolver:  Solving for Uz, Initial residual = 0.0224894, Final residual = 0.000708062, No Iterations 2
GAMG:  Solving for p, Initial residual = 0.0362777, Final residual = 0.00224622, No Iterations 2
time step continuity errors : sum local = 0.000119165, global = 1.62066e-07, cumulative = 0.000176997
smoothSolver:  Solving for omega, Initial residual = 0.000196779, Final residual = 1.12842e-05, No Iterations 1
smoothSolver:  Solving for k, Initial residual = 0.00947857, Final residual = 0.000399443, No Iterations 1
ExecutionTime = 17.51 s  ClockTime = 18 s

forces forcesFish write:
    Sum of forces
        Total    : (2.49361 0.0674783 0.0187258)
        Pressure : (2.08475 0.0663477 0.0183183)
        Viscous  : (0.408866 0.00113064 0.000407439)
    Sum of moments
        Total    : (0.000543637 -0.00329489 0.0500163)
        Pressure : (0.000553682 -0.00311633 0.0473254)
        Viscous  : (-1.00455e-05 -0.000178561 0.0026909)
    writing force and moment files.

Time = 19

smoothSolver:  Solving for Ux, Initial residual = 0.000540608, Final residual = 1.20759e-05, No Iterations 2
smoothSolver:  Solving for Uy, Initial residual = 0.0063642, Final residual = 0.000162709, No Iterations 2
smoothSolver:  Solving for Uz, Initial residual = 0.0194256, Final residual = 0.000478612, No Iterations 2
GAMG:  Solving for p, Initial residual = 0.0316729, Final residual = 0.00198458, No Iterations 2
time step continuity errors : sum local = 0.000110522, global = -5.90438e-06, cumulative = 0.000171093
smoothSolver:  Solving for omega, Initial residual = 0.000173546, Final residual = 1.00161e-05, No Iterations 1
smoothSolver:  Solving for k, Initial residual = 0.00855096, Final residual = 0.000363661, No Iterations 1
ExecutionTime = 18.38 s  ClockTime = 19 s

forces forcesFish write:
    Sum of forces
        Total    : (2.29305 0.129867 0.0260781)
        Pressure : (1.88649 0.128729 0.0256596)
        Viscous  : (0.406558 0.00113888 0.000418551)
    Sum of moments
        Total    : (0.000385416 -0.00308533 0.0518151)
        Pressure : (0.000395774 -0.00290369 0.0491175)
        Viscous  : (-1.03582e-05 -0.000181639 0.00269754)
    writing force and moment files.

Time = 20

smoothSolver:  Solving for Ux, Initial residual = 0.000492693, Final residual = 1.1053e-05, No Iterations 2
smoothSolver:  Solving for Uy, Initial residual = 0.00571899, Final residual = 0.000143587, No Iterations 2
smoothSolver:  Solving for Uz, Initial residual = 0.0177434, Final residual = 0.000402443, No Iterations 2
GAMG:  Solving for p, Initial residual = 0.0271436, Final residual = 0.00172211, No Iterations 2
time step continuity errors : sum local = 0.000100515, global = -1.11695e-05, cumulative = 0.000159924
smoothSolver:  Solving for omega, Initial residual = 0.000153365, Final residual = 8.91982e-06, No Iterations 1
smoothSolver:  Solving for k, Initial residual = 0.00773971, Final residual = 0.000332144, No Iterations 1
ExecutionTime = 19.23 s  ClockTime = 20 s

forces forcesFish write:
    Sum of forces
        Total    : (2.13068 0.17317 0.0236436)
        Pressure : (1.72602 0.172092 0.0232145)
        Viscous  : (0.404659 0.00107846 0.000429121)
    Sum of moments
        Total    : (0.000313769 -0.00136737 0.0532481)
        Pressure : (0.000324498 -0.00118191 0.0505479)
        Viscous  : (-1.07285e-05 -0.000185462 0.00270024)
    writing force and moment files.

Time = 21

smoothSolver:  Solving for Ux, Initial residual = 0.000454607, Final residual = 1.01989e-05, No Iterations 2
smoothSolver:  Solving for Uy, Initial residual = 0.005199, Final residual = 0.000140298, No Iterations 2
smoothSolver:  Solving for Uz, Initial residual = 0.0167182, Final residual = 0.000412356, No Iterations 2
GAMG:  Solving for p, Initial residual = 0.0240917, Final residual = 0.00150765, No Iterations 2
time step continuity errors : sum local = 9.12398e-05, global = -1.53488e-05, cumulative = 0.000144575
smoothSolver:  Solving for omega, Initial residual = 0.000135777, Final residual = 7.98141e-06, No Iterations 1
smoothSolver:  Solving for k, Initial residual = 0.00702402, Final residual = 0.000304147, No Iterations 1
ExecutionTime = 20.08 s  ClockTime = 21 s

forces forcesFish write:
    Sum of forces
        Total    : (2.03122 0.19098 0.0128289)
        Pressure : (1.62822 0.190002 0.0123912)
        Viscous  : (0.402999 0.000977553 0.000437731)
    Sum of moments
        Total    : (0.000329752 0.0015056 0.0539677)
        Pressure : (0.000340905 0.0016951 0.0512668)
        Viscous  : (-1.11527e-05 -0.000189497 0.00270083)
    writing force and moment files.

Time = 22

smoothSolver:  Solving for Ux, Initial residual = 0.000417544, Final residual = 9.4496e-06, No Iterations 2
smoothSolver:  Solving for Uy, Initial residual = 0.00467507, Final residual = 0.000130459, No Iterations 2
smoothSolver:  Solving for Uz, Initial residual = 0.0155111, Final residual = 0.000412574, No Iterations 2
GAMG:  Solving for p, Initial residual = 0.0225711, Final residual = 0.00137495, No Iterations 2
time step continuity errors : sum local = 8.50392e-05, global = -1.834e-05, cumulative = 0.000126235
smoothSolver:  Solving for omega, Initial residual = 0.000120387, Final residual = 7.17867e-06, No Iterations 1
smoothSolver:  Solving for k, Initial residual = 0.0063849, Final residual = 0.000278964, No Iterations 1
ExecutionTime = 20.89 s  ClockTime = 21 s

forces forcesFish write:
    Sum of forces
        Total    : (1.99379 0.184345 -0.00312068)
        Pressure : (1.59236 0.183478 -0.00356494)
        Viscous  : (0.401425 0.000867089 0.000444258)
    Sum of moments
        Total    : (0.000412621 0.00492638 0.0536794)
        Pressure : (0.000424251 0.00511979 0.0509787)
        Viscous  : (-1.16304e-05 -0.000193416 0.00270066)
    writing force and moment files.

Time = 23

smoothSolver:  Solving for Ux, Initial residual = 0.000383206, Final residual = 8.59302e-06, No Iterations 2
smoothSolver:  Solving for Uy, Initial residual = 0.00413357, Final residual = 0.000112631, No Iterations 2
smoothSolver:  Solving for Uz, Initial residual = 0.0139661, Final residual = 0.000374492, No Iterations 2
GAMG:  Solving for p, Initial residual = 0.0214973, Final residual = 0.00128806, No Iterations 2
time step continuity errors : sum local = 8.03134e-05, global = -1.99448e-05, cumulative = 0.00010629
smoothSolver:  Solving for omega, Initial residual = 0.000106847, Final residual = 6.48799e-06, No Iterations 1
smoothSolver:  Solving for k, Initial residual = 0.00581408, Final residual = 0.000256313, No Iterations 1
ExecutionTime = 21.69 s  ClockTime = 22 s

forces forcesFish write:
    Sum of forces
        Total    : (2.00158 0.159334 -0.0211021)
        Pressure : (1.60176 0.158559 -0.0215521)
        Viscous  : (0.399819 0.000775287 0.000449989)
    Sum of moments
        Total    : (0.000537564 0.00836976 0.0523636)
        Pressure : (0.000549694 0.00856718 0.0496621)
        Viscous  : (-1.21298e-05 -0.000197419 0.00270149)
    writing force and moment files.

Time = 24

smoothSolver:  Solving for Ux, Initial residual = 0.000355753, Final residual = 7.67501e-06, No Iterations 2
smoothSolver:  Solving for Uy, Initial residual = 0.00367159, Final residual = 9.20066e-05, No Iterations 2
smoothSolver:  Solving for Uz, Initial residual = 0.0123733, Final residual = 0.000307302, No Iterations 2
GAMG:  Solving for p, Initial residual = 0.0203576, Final residual = 0.00118808, No Iterations 2
time step continuity errors : sum local = 7.38778e-05, global = -2.03043e-05, cumulative = 8.59857e-05
smoothSolver:  Solving for omega, Initial residual = 9.48735e-05, Final residual = 5.89115e-06, No Iterations 1
smoothSolver:  Solving for k, Initial residual = 0.00530085, Final residual = 0.000235781, No Iterations 1
ExecutionTime = 22.51 s  ClockTime = 23 s

forces forcesFish write:
    Sum of forces
        Total    : (2.03271 0.123232 -0.0385763)
        Pressure : (1.63459 0.122511 -0.0390321)
        Viscous  : (0.39812 0.000720819 0.00045578)
    Sum of moments
        Total    : (0.000682828 0.011412 0.0500935)
        Pressure : (0.000695455 0.0116135 0.0473889)
        Viscous  : (-1.26275e-05 -0.000201494 0.00270456)
    writing force and moment files.

Time = 25

smoothSolver:  Solving for Ux, Initial residual = 0.000329549, Final residual = 3.16654e-05, No Iterations 1
smoothSolver:  Solving for Uy, Initial residual = 0.00340116, Final residual = 7.614e-05, No Iterations 2
smoothSolver:  Solving for Uz, Initial residual = 0.0110502, Final residual = 0.00023747, No Iterations 2
GAMG:  Solving for p, Initial residual = 0.0193289, Final residual = 0.0010652, No Iterations 2
time step continuity errors : sum local = 6.55951e-05, global = -1.94319e-05, cumulative = 6.65538e-05
smoothSolver:  Solving for omega, Initial residual = 8.42019e-05, Final residual = 5.3589e-06, No Iterations 1
smoothSolver:  Solving for k, Initial residual = 0.00483357, Final residual = 0.000216956, No Iterations 1
ExecutionTime = 23.32 s  ClockTime = 24 s

forces forcesFish write:
    Sum of forces
        Total    : (2.06811 0.0848641 -0.0530722)
        Pressure : (1.67168 0.0841512 -0.0535358)
        Viscous  : (0.396423 0.000712889 0.000463546)
    Sum of moments
        Total    : (0.000825069 0.0136501 0.0473004)
        Pressure : (0.000838174 0.0138561 0.0445877)
        Viscous  : (-1.31049e-05 -0.000205985 0.00271273)
    writing force and moment files.

Time = 26

smoothSolver:  Solving for Ux, Initial residual = 0.000306206, Final residual = 2.86015e-05, No Iterations 1
smoothSolver:  Solving for Uy, Initial residual = 0.0032433, Final residual = 6.67862e-05, No Iterations 2
smoothSolver:  Solving for Uz, Initial residual = 0.0101028, Final residual = 0.000983908, No Iterations 1
GAMG:  Solving for p, Initial residual = 0.0180617, Final residual = 0.000936182, No Iterations 2
time step continuity errors : sum local = 5.69056e-05, global = -1.74147e-05, cumulative = 4.91391e-05
smoothSolver:  Solving for omega, Initial residual = 7.46926e-05, Final residual = 4.88163e-06, No Iterations 1
smoothSolver:  Solving for k, Initial residual = 0.00440816, Final residual = 0.000199676, No Iterations 1
ExecutionTime = 24.15 s  ClockTime = 25 s

forces forcesFish write:
    Sum of forces
        Total    : (2.0938 0.0510758 -0.0631469)
        Pressure : (1.69914 0.0503313 -0.0636189)
        Viscous  : (0.394656 0.000744533 0.000472021)
    Sum of moments
        Total    : (0.000944777 0.0149104 0.0444732)
        Pressure : (0.000958268 0.0151208 0.0417496)
        Viscous  : (-1.34916e-05 -0.000210423 0.00272357)
    writing force and moment files.

Time = 27

smoothSolver:  Solving for Ux, Initial residual = 0.000284798, Final residual = 2.6049e-05, No Iterations 1
smoothSolver:  Solving for Uy, Initial residual = 0.00310241, Final residual = 6.17568e-05, No Iterations 2
smoothSolver:  Solving for Uz, Initial residual = 0.0095841, Final residual = 0.000928381, No Iterations 1
GAMG:  Solving for p, Initial residual = 0.0166677, Final residual = 0.000833237, No Iterations 2
time step continuity errors : sum local = 4.99868e-05, global = -1.4652e-05, cumulative = 3.44871e-05
smoothSolver:  Solving for omega, Initial residual = 6.62187e-05, Final residual = 4.45272e-06, No Iterations 1
smoothSolver:  Solving for k, Initial residual = 0.00401919, Final residual = 0.000183777, No Iterations 1
ExecutionTime = 24.98 s  ClockTime = 25 s

forces forcesFish write:
    Sum of forces
        Total    : (2.10421 0.026012 -0.0679208)
        Pressure : (1.71135 0.025204 -0.0683995)
        Viscous  : (0.392868 0.000807934 0.000478696)
    Sum of moments
        Total    : (0.00102615 0.0151149 0.0419661)
        Pressure : (0.00103997 0.0153289 0.0392291)
        Viscous  : (-1.38138e-05 -0.000214008 0.002737)
    writing force and moment files.

Time = 28

smoothSolver:  Solving for Ux, Initial residual = 0.000267722, Final residual = 2.40697e-05, No Iterations 1
smoothSolver:  Solving for Uy, Initial residual = 0.00293828, Final residual = 0.000290767, No Iterations 1
smoothSolver:  Solving for Uz, Initial residual = 0.00901379, Final residual = 0.000883328, No Iterations 1
GAMG:  Solving for p, Initial residual = 0.0153025, Final residual = 0.000769528, No Iterations 2
time step continuity errors : sum local = 4.56465e-05, global = -1.14211e-05, cumulative = 2.3066e-05
smoothSolver:  Solving for omega, Initial residual = 5.86069e-05, Final residual = 4.06082e-06, No Iterations 1
smoothSolver:  Solving for k, Initial residual = 0.00366032, Final residual = 0.000169026, No Iterations 1
ExecutionTime = 25.78 s  ClockTime = 26 s

forces forcesFish write:
    Sum of forces
        Total    : (2.09964 0.0104874 -0.0677256)
        Pressure : (1.70855 0.00961198 -0.0682127)
        Viscous  : (0.3911 0.000875398 0.000487136)
    Sum of moments
        Total    : (0.00106332 0.01442 0.0398764)
        Pressure : (0.0010774 0.0146381 0.0371291)
        Viscous  : (-1.40806e-05 -0.000218083 0.00274733)
    writing force and moment files.

Time = 29

smoothSolver:  Solving for Ux, Initial residual = 0.000250108, Final residual = 2.22904e-05, No Iterations 1
smoothSolver:  Solving for Uy, Initial residual = 0.00278449, Final residual = 0.00027219, No Iterations 1
smoothSolver:  Solving for Uz, Initial residual = 0.00828941, Final residual = 0.000813826, No Iterations 1
GAMG:  Solving for p, Initial residual = 0.0143925, Final residual = 0.000726538, No Iterations 2
time step continuity errors : sum local = 4.27366e-05, global = -7.88677e-06, cumulative = 1.51793e-05
smoothSolver:  Solving for omega, Initial residual = 5.17902e-05, Final residual = 3.70832e-06, No Iterations 1
smoothSolver:  Solving for k, Initial residual = 0.00332853, Final residual = 0.000155326, No Iterations 1
ExecutionTime = 26.61 s  ClockTime = 27 s

forces forcesFish write:
    Sum of forces
        Total    : (2.08362 0.00425644 -0.0636109)
        Pressure : (1.69423 0.00330436 -0.0641049)
        Viscous  : (0.389391 0.000952082 0.000494038)
    Sum of moments
        Total    : (0.00105968 0.0130884 0.0384129)
        Pressure : (0.00107397 0.0133099 0.0356541)
        Viscous  : (-1.42958e-05 -0.000221496 0.00275885)
    writing force and moment files.

Time = 30

smoothSolver:  Solving for Ux, Initial residual = 0.000233928, Final residual = 2.06014e-05, No Iterations 1
smoothSolver:  Solving for Uy, Initial residual = 0.00257017, Final residual = 0.0002478, No Iterations 1
smoothSolver:  Solving for Uz, Initial residual = 0.00746718, Final residual = 0.000724051, No Iterations 1
GAMG:  Solving for p, Initial residual = 0.0135422, Final residual = 0.000698046, No Iterations 2
time step continuity errors : sum local = 4.08576e-05, global = -3.97273e-06, cumulative = 1.12065e-05
smoothSolver:  Solving for omega, Initial residual = 4.56799e-05, Final residual = 3.38876e-06, No Iterations 1
smoothSolver:  Solving for k, Initial residual = 0.00302171, Final residual = 0.000142617, No Iterations 1
ExecutionTime = 27.42 s  ClockTime = 28 s

forces forcesFish write:
    Sum of forces
        Total    : (2.06085 0.00522023 -0.0570401)
        Pressure : (1.67308 0.00418924 -0.0575393)
        Viscous  : (0.387765 0.00103099 0.000499253)
    Sum of moments
        Total    : (0.00102449 0.0114256 0.0375659)
        Pressure : (0.00103895 0.0116498 0.0347947)
        Viscous  : (-1.44645e-05 -0.000224155 0.00277117)
    writing force and moment files.

Time = 31

smoothSolver:  Solving for Ux, Initial residual = 0.000219046, Final residual = 1.90686e-05, No Iterations 1
smoothSolver:  Solving for Uy, Initial residual = 0.00233396, Final residual = 0.000220531, No Iterations 1
smoothSolver:  Solving for Uz, Initial residual = 0.00664545, Final residual = 0.000623246, No Iterations 1
GAMG:  Solving for p, Initial residual = 0.012624, Final residual = 0.0006675, No Iterations 2
time step continuity errors : sum local = 3.8988e-05, global = 1.49827e-07, cumulative = 1.13564e-05
smoothSolver:  Solving for omega, Initial residual = 4.02076e-05, Final residual = 3.09833e-06, No Iterations 1
smoothSolver:  Solving for k, Initial residual = 0.00273682, Final residual = 0.000130787, No Iterations 1
ExecutionTime = 28.23 s  ClockTime = 29 s

forces forcesFish write:
    Sum of forces
        Total    : (2.03593 0.0105906 -0.0493464)
        Pressure : (1.6497 0.00948379 -0.0498493)
        Viscous  : (0.386235 0.00110678 0.000502864)
    Sum of moments
        Total    : (0.000967815 0.00969041 0.0371922)
        Pressure : (0.000982411 0.00991658 0.0344084)
        Viscous  : (-1.45959e-05 -0.000226167 0.00278382)
    writing force and moment files.

Time = 32

smoothSolver:  Solving for Ux, Initial residual = 0.000205278, Final residual = 1.77046e-05, No Iterations 1
smoothSolver:  Solving for Uy, Initial residual = 0.00211411, Final residual = 0.000196901, No Iterations 1
smoothSolver:  Solving for Uz, Initial residual = 0.00587707, Final residual = 0.000525316, No Iterations 1
GAMG:  Solving for p, Initial residual = 0.0116761, Final residual = 0.000620736, No Iterations 2
time step continuity errors : sum local = 3.62499e-05, global = 3.82132e-06, cumulative = 1.51777e-05
smoothSolver:  Solving for omega, Initial residual = 3.53169e-05, Final residual = 2.83494e-06, No Iterations 1
smoothSolver:  Solving for k, Initial residual = 0.00247101, Final residual = 0.000119723, No Iterations 1
ExecutionTime = 29.05 s  ClockTime = 30 s

forces forcesFish write:
    Sum of forces
        Total    : (2.01275 0.0176643 -0.0415956)
        Pressure : (1.62795 0.0164882 -0.0421004)
        Viscous  : (0.384805 0.00117605 0.000504869)
    Sum of moments
        Total    : (0.000899005 0.00808298 0.0370941)
        Pressure : (0.000913704 0.00831057 0.0342981)
        Viscous  : (-1.46991e-05 -0.000227588 0.00279607)
    writing force and moment files.

Time = 33

smoothSolver:  Solving for Ux, Initial residual = 0.000193789, Final residual = 1.65399e-05, No Iterations 1
smoothSolver:  Solving for Uy, Initial residual = 0.00194431, Final residual = 0.00017994, No Iterations 1
smoothSolver:  Solving for Uz, Initial residual = 0.00522424, Final residual = 0.000444803, No Iterations 1
GAMG:  Solving for p, Initial residual = 0.0107716, Final residual = 0.000554479, No Iterations 2
time step continuity errors : sum local = 3.24149e-05, global = 6.51686e-06, cumulative = 2.16945e-05
smoothSolver:  Solving for omega, Initial residual = 3.0962e-05, Final residual = 2.59837e-06, No Iterations 1
smoothSolver:  Solving for k, Initial residual = 0.00222411, Final residual = 0.000109433, No Iterations 1
ExecutionTime = 29.84 s  ClockTime = 30 s

forces forcesFish write:
    Sum of forces
        Total    : (1.99397 0.0241635 -0.0345692)
        Pressure : (1.61049 0.0229256 -0.0350743)
        Viscous  : (0.383472 0.00123782 0.000505153)
    Sum of moments
        Total    : (0.00082629 0.00674479 0.0370556)
        Pressure : (0.000841071 0.00697323 0.0342482)
        Viscous  : (-1.47817e-05 -0.000228437 0.00280736)
    writing force and moment files.

Time = 34

smoothSolver:  Solving for Ux, Initial residual = 0.000182737, Final residual = 1.55305e-05, No Iterations 1
smoothSolver:  Solving for Uy, Initial residual = 0.00182787, Final residual = 0.000167971, No Iterations 1
smoothSolver:  Solving for Uz, Initial residual = 0.00475804, Final residual = 0.000390349, No Iterations 1
GAMG:  Solving for p, Initial residual = 0.00994313, Final residual = 0.00047222, No Iterations 2
time step continuity errors : sum local = 2.76521e-05, global = 7.59507e-06, cumulative = 2.92896e-05
smoothSolver:  Solving for omega, Initial residual = 2.70984e-05, Final residual = 2.38574e-06, No Iterations 1
smoothSolver:  Solving for k, Initial residual = 0.00199485, Final residual = 9.98664e-05, No Iterations 1
ExecutionTime = 30.66 s  ClockTime = 31 s

forces forcesFish write:
    Sum of forces
        Total    : (1.98095 0.0283725 -0.0288139)
        Pressure : (1.59872 0.0270794 -0.0293179)
        Viscous  : (0.382228 0.00129305 0.000503982)
    Sum of moments
        Total    : (0.000756891 0.00576969 0.0368661)
        Pressure : (0.00077174 0.00599845 0.0340486)
        Viscous  : (-1.48493e-05 -0.000228761 0.00281755)
    writing force and moment files.

Time = 35

smoothSolver:  Solving for Ux, Initial residual = 0.000167299, Final residual = 1.44968e-05, No Iterations 1
smoothSolver:  Solving for Uy, Initial residual = 0.00175044, Final residual = 0.000159127, No Iterations 1
smoothSolver:  Solving for Uz, Initial residual = 0.00444887, Final residual = 0.000358256, No Iterations 1
GAMG:  Solving for p, Initial residual = 0.00918901, Final residual = 0.000401209, No Iterations 2
time step continuity errors : sum local = 2.35428e-05, global = 6.76893e-06, cumulative = 3.60585e-05
smoothSolver:  Solving for omega, Initial residual = 2.36845e-05, Final residual = 2.1938e-06, No Iterations 1
smoothSolver:  Solving for k, Initial residual = 0.00178154, Final residual = 9.09476e-05, No Iterations 1
ExecutionTime = 31.45 s  ClockTime = 32 s

forces forcesFish write:
    Sum of forces
        Total    : (1.97389 0.0291394 -0.0248318)
        Pressure : (1.59282 0.0277956 -0.0253338)
        Viscous  : (0.381065 0.00134383 0.000501957)
    Sum of moments
        Total    : (0.000698461 0.0052373 0.0363494)
        Pressure : (0.000713362 0.00546607 0.0335225)
        Viscous  : (-1.49013e-05 -0.000228773 0.00282684)
    writing force and moment files.

Time = 36

smoothSolver:  Solving for Ux, Initial residual = 0.000147865, Final residual = 1.33736e-05, No Iterations 1
smoothSolver:  Solving for Uy, Initial residual = 0.00167549, Final residual = 0.000149836, No Iterations 1
smoothSolver:  Solving for Uz, Initial residual = 0.00420565, Final residual = 0.000335484, No Iterations 1
GAMG:  Solving for p, Initial residual = 0.00854359, Final residual = 0.000364393, No Iterations 2
time step continuity errors : sum local = 2.14357e-05, global = 5.36591e-06, cumulative = 4.14244e-05
smoothSolver:  Solving for omega, Initial residual = 2.06701e-05, Final residual = 2.02097e-06, No Iterations 1
smoothSolver:  Solving for k, Initial residual = 0.00158395, Final residual = 8.26739e-05, No Iterations 1
ExecutionTime = 32.26 s  ClockTime = 33 s

forces forcesFish write:
    Sum of forces
        Total    : (1.97177 0.0261074 -0.0231103)
        Pressure : (1.5918 0.0247152 -0.0236093)
        Viscous  : (0.379971 0.00139215 0.000499033)
    Sum of moments
        Total    : (0.000659248 0.00520485 0.0354392)
        Pressure : (0.000674194 0.00543326 0.0326039)
        Viscous  : (-1.49456e-05 -0.000228411 0.00283528)
    writing force and moment files.

Time = 37

smoothSolver:  Solving for Ux, Initial residual = 0.000134332, Final residual = 1.24213e-05, No Iterations 1
smoothSolver:  Solving for Uy, Initial residual = 0.00159086, Final residual = 0.000140014, No Iterations 1
smoothSolver:  Solving for Uz, Initial residual = 0.00397432, Final residual = 0.00031212, No Iterations 1
GAMG:  Solving for p, Initial residual = 0.00794471, Final residual = 0.000329889, No Iterations 2
time step continuity errors : sum local = 1.94515e-05, global = 4.85765e-06, cumulative = 4.62821e-05
smoothSolver:  Solving for omega, Initial residual = 1.8024e-05, Final residual = 3.97773e-07, No Iterations 2
smoothSolver:  Solving for k, Initial residual = 0.00140196, Final residual = 7.50835e-05, No Iterations 1
ExecutionTime = 33.1 s  ClockTime = 34 s

forces forcesFish write:
    Sum of forces
        Total    : (1.9728 0.0200591 -0.0235896)
        Pressure : (1.59386 0.0186195 -0.0240855)
        Viscous  : (0.37894 0.00143957 0.00049591)
    Sum of moments
        Total    : (0.000642452 0.00560821 0.0342332)
        Pressure : (0.000657438 0.00583612 0.0313902)
        Viscous  : (-1.4986e-05 -0.000227914 0.00284295)
    writing force and moment files.

Time = 38

smoothSolver:  Solving for Ux, Initial residual = 0.000127583, Final residual = 1.17843e-05, No Iterations 1
smoothSolver:  Solving for Uy, Initial residual = 0.00149018, Final residual = 0.000130547, No Iterations 1
smoothSolver:  Solving for Uz, Initial residual = 0.00372922, Final residual = 0.000286956, No Iterations 1
GAMG:  Solving for p, Initial residual = 0.00735732, Final residual = 0.000293616, No Iterations 2
time step continuity errors : sum local = 1.73373e-05, global = 4.75493e-06, cumulative = 5.1037e-05
smoothSolver:  Solving for omega, Initial residual = 1.5413e-05, Final residual = 3.60778e-07, No Iterations 2
smoothSolver:  Solving for k, Initial residual = 0.00123554, Final residual = 6.8136e-05, No Iterations 1
ExecutionTime = 33.91 s  ClockTime = 34 s

forces forcesFish write:
    Sum of forces
        Total    : (1.9752 0.0124629 -0.0255736)
        Pressure : (1.59723 0.0109754 -0.026066)
        Viscous  : (0.377967 0.0014875 0.000492402)
    Sum of moments
        Total    : (0.000644334 0.00627071 0.0329064)
        Pressure : (0.000659355 0.00649795 0.0300564)
        Viscous  : (-1.50209e-05 -0.000227236 0.00285004)
    writing force and moment files.

Time = 39

smoothSolver:  Solving for Ux, Initial residual = 0.000122351, Final residual = 1.12603e-05, No Iterations 1
smoothSolver:  Solving for Uy, Initial residual = 0.00138061, Final residual = 0.00012095, No Iterations 1
smoothSolver:  Solving for Uz, Initial residual = 0.00346436, Final residual = 0.000264281, No Iterations 1
GAMG:  Solving for p, Initial residual = 0.00678425, Final residual = 0.000274366, No Iterations 2
time step continuity errors : sum local = 1.62052e-05, global = 4.03803e-06, cumulative = 5.50751e-05
smoothSolver:  Solving for omega, Initial residual = 1.32002e-05, Final residual = 3.25402e-07, No Iterations 2
smoothSolver:  Solving for k, Initial residual = 0.00108366, Final residual = 6.17441e-05, No Iterations 1
ExecutionTime = 34.73 s  ClockTime = 35 s

forces forcesFish write:
    Sum of forces
        Total    : (1.97771 0.00462898 -0.0282443)
        Pressure : (1.60066 0.00309339 -0.0287332)
        Viscous  : (0.377048 0.00153559 0.000488912)
    Sum of moments
        Total    : (0.000658517 0.00701445 0.0315921)
        Pressure : (0.000673568 0.00724097 0.0287357)
        Viscous  : (-1.50515e-05 -0.00022652 0.00285642)
    writing force and moment files.

Time = 40

smoothSolver:  Solving for Ux, Initial residual = 0.000117105, Final residual = 1.07647e-05, No Iterations 1
smoothSolver:  Solving for Uy, Initial residual = 0.00127393, Final residual = 0.000112405, No Iterations 1
smoothSolver:  Solving for Uz, Initial residual = 0.0031923, Final residual = 0.00024444, No Iterations 1
GAMG:  Solving for p, Initial residual = 0.00626892, Final residual = 0.000268101, No Iterations 2
time step continuity errors : sum local = 1.58268e-05, global = 2.61106e-06, cumulative = 5.76861e-05
smoothSolver:  Solving for omega, Initial residual = 1.13246e-05, Final residual = 2.93511e-07, No Iterations 2
smoothSolver:  Solving for k, Initial residual = 0.000946209, Final residual = 5.59011e-05, No Iterations 1
ExecutionTime = 35.56 s  ClockTime = 36 s

forces forcesFish write:
    Sum of forces
        Total    : (1.9796 -0.00267465 -0.0310308)
        Pressure : (1.60342 -0.00425775 -0.0315163)
        Viscous  : (0.37618 0.0015831 0.000485456)
    Sum of moments
        Total    : (0.000679702 0.00772511 0.030345)
        Pressure : (0.000694778 0.00795083 0.027483)
        Viscous  : (-1.50762e-05 -0.000225722 0.00286205)
    writing force and moment files.

Time = 41

smoothSolver:  Solving for Ux, Initial residual = 0.000113148, Final residual = 1.03211e-05, No Iterations 1
smoothSolver:  Solving for Uy, Initial residual = 0.00117992, Final residual = 0.000105308, No Iterations 1
smoothSolver:  Solving for Uz, Initial residual = 0.00293325, Final residual = 0.000227507, No Iterations 1
GAMG:  Solving for p, Initial residual = 0.00579485, Final residual = 0.000264116, No Iterations 2
time step continuity errors : sum local = 1.55774e-05, global = 1.0042e-06, cumulative = 5.86903e-05
smoothSolver:  Solving for omega, Initial residual = 9.74239e-06, Final residual = 2.6525e-07, No Iterations 2
smoothSolver:  Solving for k, Initial residual = 0.00082283, Final residual = 5.05897e-05, No Iterations 1
ExecutionTime = 36.38 s  ClockTime = 37 s

forces forcesFish write:
    Sum of forces
        Total    : (1.98048 -0.00902926 -0.0335852)
        Pressure : (1.60511 -0.0106578 -0.0340673)
        Viscous  : (0.375365 0.00162851 0.000482149)
    Sum of moments
        Total    : (0.000703897 0.00833569 0.0291914)
        Pressure : (0.000718991 0.00856057 0.0263246)
        Viscous  : (-1.50939e-05 -0.000224875 0.00286681)
    writing force and moment files.

Time = 42

smoothSolver:  Solving for Ux, Initial residual = 0.000108208, Final residual = 9.85465e-06, No Iterations 1
smoothSolver:  Solving for Uy, Initial residual = 0.00110611, Final residual = 9.97301e-05, No Iterations 1
smoothSolver:  Solving for Uz, Initial residual = 0.00270837, Final residual = 0.000213732, No Iterations 1
GAMG:  Solving for p, Initial residual = 0.005357, Final residual = 0.000254152, No Iterations 2
time step continuity errors : sum local = 1.49753e-05, global = -4.78864e-07, cumulative = 5.82115e-05
smoothSolver:  Solving for omega, Initial residual = 8.41267e-06, Final residual = 2.40255e-07, No Iterations 2
smoothSolver:  Solving for k, Initial residual = 0.000712948, Final residual = 4.57819e-05, No Iterations 1
ExecutionTime = 37.21 s  ClockTime = 38 s

forces forcesFish write:
    Sum of forces
        Total    : (1.98029 -0.0142847 -0.035712)
        Pressure : (1.60568 -0.0159549 -0.036191)
        Viscous  : (0.374601 0.00167023 0.000478962)
    Sum of moments
        Total    : (0.000728022 0.00881097 0.0281389)
        Pressure : (0.000743124 0.00903492 0.0252684)
        Viscous  : (-1.51016e-05 -0.00022395 0.00287057)
    writing force and moment files.

Time = 43

smoothSolver:  Solving for Ux, Initial residual = 0.000102013, Final residual = 9.35713e-06, No Iterations 1
smoothSolver:  Solving for Uy, Initial residual = 0.0010541, Final residual = 9.56414e-05, No Iterations 1
smoothSolver:  Solving for Uz, Initial residual = 0.00255081, Final residual = 0.000203424, No Iterations 1
GAMG:  Solving for p, Initial residual = 0.00497194, Final residual = 0.000240814, No Iterations 2
time step continuity errors : sum local = 1.41785e-05, global = -1.39413e-06, cumulative = 5.68173e-05
smoothSolver:  Solving for omega, Initial residual = 7.30158e-06, Final residual = 2.18263e-07, No Iterations 2
smoothSolver:  Solving for k, Initial residual = 0.000615812, Final residual = 4.14409e-05, No Iterations 1
ExecutionTime = 38.02 s  ClockTime = 39 s

forces forcesFish write:
    Sum of forces
        Total    : (1.97916 -0.0183925 -0.0372797)
        Pressure : (1.60528 -0.0200993 -0.0377555)
        Viscous  : (0.373888 0.00170675 0.00047582)
    Sum of moments
        Total    : (0.0007493 0.00912969 0.027202)
        Pressure : (0.000764399 0.00935268 0.0243288)
        Viscous  : (-1.50987e-05 -0.00022299 0.00287324)
    writing force and moment files.

Time = 44

smoothSolver:  Solving for Ux, Initial residual = 9.46285e-05, Final residual = 8.82385e-06, No Iterations 1
smoothSolver:  Solving for Uy, Initial residual = 0.00101254, Final residual = 9.23108e-05, No Iterations 1
smoothSolver:  Solving for Uz, Initial residual = 0.00241934, Final residual = 0.000194123, No Iterations 1
GAMG:  Solving for p, Initial residual = 0.00462579, Final residual = 0.000220966, No Iterations 2
time step continuity errors : sum local = 1.30017e-05, global = -1.8451e-06, cumulative = 5.49722e-05
smoothSolver:  Solving for omega, Initial residual = 6.37918e-06, Final residual = 1.98862e-07, No Iterations 2
smoothSolver:  Solving for k, Initial residual = 0.000530497, Final residual = 3.75245e-05, No Iterations 1
ExecutionTime = 38.85 s  ClockTime = 39 s

forces forcesFish write:
    Sum of forces
        Total    : (1.97741 -0.0214493 -0.038234)
        Pressure : (1.60418 -0.0231863 -0.0387067)
        Viscous  : (0.373227 0.00173703 0.000472633)
    Sum of moments
        Total    : (0.000765603 0.00928873 0.0263839)
        Pressure : (0.000780688 0.00951069 0.0235092)
        Viscous  : (-1.50848e-05 -0.000221959 0.0028747)
    writing force and moment files.

Time = 45

smoothSolver:  Solving for Ux, Initial residual = 8.61702e-05, Final residual = 8.2633e-06, No Iterations 1
smoothSolver:  Solving for Uy, Initial residual = 0.00097303, Final residual = 8.9199e-05, No Iterations 1
smoothSolver:  Solving for Uz, Initial residual = 0.00228817, Final residual = 0.000184424, No Iterations 1
GAMG:  Solving for p, Initial residual = 0.00431332, Final residual = 0.000198199, No Iterations 2
time step continuity errors : sum local = 1.16559e-05, global = -2.04423e-06, cumulative = 5.2928e-05
smoothSolver:  Solving for omega, Initial residual = 5.61368e-06, Final residual = 1.81947e-07, No Iterations 2
smoothSolver:  Solving for k, Initial residual = 0.000456232, Final residual = 3.40066e-05, No Iterations 1
ExecutionTime = 39.67 s  ClockTime = 40 s

forces forcesFish write:
    Sum of forces
        Total    : (1.97533 -0.0236085 -0.038586)
        Pressure : (1.60271 -0.025369 -0.0390554)
        Viscous  : (0.372615 0.00176043 0.000469394)
    Sum of moments
        Total    : (0.000775559 0.00930164 0.0256877)
        Pressure : (0.000790621 0.00952252 0.0228128)
        Viscous  : (-1.50616e-05 -0.000220876 0.00287494)
    writing force and moment files.

Time = 46

smoothSolver:  Solving for Ux, Initial residual = 7.76857e-05, Final residual = 7.70339e-06, No Iterations 1
smoothSolver:  Solving for Uy, Initial residual = 0.000930677, Final residual = 8.61052e-05, No Iterations 1
smoothSolver:  Solving for Uz, Initial residual = 0.00215333, Final residual = 0.000173874, No Iterations 1
GAMG:  Solving for p, Initial residual = 0.00402593, Final residual = 0.000172979, No Iterations 2
time step continuity errors : sum local = 1.01675e-05, global = -2.16926e-06, cumulative = 5.07587e-05
smoothSolver:  Solving for omega, Initial residual = 4.98003e-06, Final residual = 1.67365e-07, No Iterations 2
smoothSolver:  Solving for k, Initial residual = 0.000392015, Final residual = 3.08493e-05, No Iterations 1
ExecutionTime = 40.5 s  ClockTime = 41 s

forces forcesFish write:
    Sum of forces
        Total    : (1.9732 -0.0251268 -0.0384395)
        Pressure : (1.60115 -0.0269036 -0.0389055)
        Viscous  : (0.37205 0.00177685 0.000465975)
    Sum of moments
        Total    : (0.000779072 0.00920282 0.0250971)
        Pressure : (0.000794103 0.00942253 0.0222231)
        Viscous  : (-1.50303e-05 -0.000219717 0.00287396)
    writing force and moment files.

Time = 47

smoothSolver:  Solving for Ux, Initial residual = 7.27513e-05, Final residual = 7.25837e-06, No Iterations 1
smoothSolver:  Solving for Uy, Initial residual = 0.000888327, Final residual = 8.31571e-05, No Iterations 1
smoothSolver:  Solving for Uz, Initial residual = 0.00201506, Final residual = 0.000163126, No Iterations 1
GAMG:  Solving for p, Initial residual = 0.00375542, Final residual = 0.00014855, No Iterations 2
time step continuity errors : sum local = 8.72674e-06, global = -2.16812e-06, cumulative = 4.85906e-05
smoothSolver:  Solving for omega, Initial residual = 4.45566e-06, Final residual = 1.54791e-07, No Iterations 2
smoothSolver:  Solving for k, Initial residual = 0.000336861, Final residual = 2.80173e-05, No Iterations 1
ExecutionTime = 41.32 s  ClockTime = 42 s

forces forcesFish write:
    Sum of forces
        Total    : (1.9712 -0.0263587 -0.0379621)
        Pressure : (1.59966 -0.0281455 -0.0384247)
        Viscous  : (0.37153 0.00178673 0.000462566)
    Sum of moments
        Total    : (0.00077717 0.00903749 0.0245667)
        Pressure : (0.000792162 0.00925602 0.0216948)
        Viscous  : (-1.49918e-05 -0.000218524 0.00287189)
    writing force and moment files.

Time = 48

smoothSolver:  Solving for Ux, Initial residual = 7.08584e-05, Final residual = 6.94115e-06, No Iterations 1
smoothSolver:  Solving for Uy, Initial residual = 0.000848778, Final residual = 8.03504e-05, No Iterations 1
smoothSolver:  Solving for Uz, Initial residual = 0.00187945, Final residual = 0.000152771, No Iterations 1
GAMG:  Solving for p, Initial residual = 0.00350173, Final residual = 0.000129925, No Iterations 2
time step continuity errors : sum local = 7.6274e-06, global = -1.99182e-06, cumulative = 4.65988e-05
smoothSolver:  Solving for omega, Initial residual = 4.02008e-06, Final residual = 1.44013e-07, No Iterations 2
smoothSolver:  Solving for k, Initial residual = 0.000289753, Final residual = 2.54758e-05, No Iterations 1
ExecutionTime = 42.14 s  ClockTime = 43 s

forces forcesFish write:
    Sum of forces
        Total    : (1.96942 -0.0276601 -0.037316)
        Pressure : (1.59837 -0.0294509 -0.037775)
        Viscous  : (0.371053 0.00179081 0.000458936)
    Sum of moments
        Total    : (0.000771285 0.00884562 0.0240368)
        Pressure : (0.000786234 0.00906287 0.021168)
        Viscous  : (-1.49484e-05 -0.000217245 0.00286885)
    writing force and moment files.

Time = 49

smoothSolver:  Solving for Ux, Initial residual = 6.91482e-05, Final residual = 6.65489e-06, No Iterations 1
smoothSolver:  Solving for Uy, Initial residual = 0.000814283, Final residual = 7.77439e-05, No Iterations 1
smoothSolver:  Solving for Uz, Initial residual = 0.00175116, Final residual = 0.000143478, No Iterations 1
GAMG:  Solving for p, Initial residual = 0.0032644, Final residual = 0.000120835, No Iterations 2
time step continuity errors : sum local = 7.08757e-06, global = -1.80088e-06, cumulative = 4.47979e-05
smoothSolver:  Solving for omega, Initial residual = 3.65857e-06, Final residual = 1.34804e-07, No Iterations 2
smoothSolver:  Solving for k, Initial residual = 0.000249639, Final residual = 2.31882e-05, No Iterations 1
ExecutionTime = 43.04 s  ClockTime = 44 s

forces forcesFish write:
    Sum of forces
        Total    : (1.96791 -0.0292663 -0.0366293)
        Pressure : (1.5973 -0.0310563 -0.0370847)
        Viscous  : (0.370616 0.00179002 0.00045537)
    Sum of moments
        Total    : (0.000762869 0.00865777 0.023463)
        Pressure : (0.000777771 0.00887378 0.020598)
        Viscous  : (-1.49022e-05 -0.000216005 0.00286502)
    writing force and moment files.

Time = 50

smoothSolver:  Solving for Ux, Initial residual = 6.63557e-05, Final residual = 6.34669e-06, No Iterations 1
smoothSolver:  Solving for Uy, Initial residual = 0.000783945, Final residual = 7.51943e-05, No Iterations 1
smoothSolver:  Solving for Uz, Initial residual = 0.0016467, Final residual = 0.000135768, No Iterations 1
GAMG:  Solving for p, Initial residual = 0.00304983, Final residual = 0.000114809, No Iterations 2
time step continuity errors : sum local = 6.72683e-06, global = -1.67509e-06, cumulative = 4.31228e-05
smoothSolver:  Solving for omega, Initial residual = 3.35802e-06, Final residual = 1.26955e-07, No Iterations 2
smoothSolver:  Solving for k, Initial residual = 0.000215631, Final residual = 2.11288e-05, No Iterations 1
ExecutionTime = 43.83 s  ClockTime = 44 s

forces forcesFish write:
    Sum of forces
        Total    : (1.96661 -0.0312037 -0.0360132)
        Pressure : (1.59639 -0.0329889 -0.0364649)
        Viscous  : (0.370217 0.00178527 0.00045167)
    Sum of moments
        Total    : (0.000753538 0.00850037 0.0228431)
        Pressure : (0.000768392 0.00871506 0.0199825)
        Viscous  : (-1.48539e-05 -0.000214688 0.00286054)
    writing force and moment files.

Time = 51

smoothSolver:  Solving for Ux, Initial residual = 6.22148e-05, Final residual = 6.00984e-06, No Iterations 1
smoothSolver:  Solving for Uy, Initial residual = 0.000755386, Final residual = 7.26097e-05, No Iterations 1
smoothSolver:  Solving for Uz, Initial residual = 0.00157186, Final residual = 0.000129825, No Iterations 1
GAMG:  Solving for p, Initial residual = 0.00285713, Final residual = 0.000112598, No Iterations 2
time step continuity errors : sum local = 6.58984e-06, global = -1.38009e-06, cumulative = 4.17427e-05
smoothSolver:  Solving for omega, Initial residual = 3.10482e-06, Final residual = 1.20007e-07, No Iterations 2
smoothSolver:  Solving for k, Initial residual = 0.000186896, Final residual = 4.17021e-06, No Iterations 2
ExecutionTime = 44.62 s  ClockTime = 45 s

forces forcesFish write:
    Sum of forces
        Total    : (1.96533 -0.033354 -0.0355501)
        Pressure : (1.59556 -0.0351301 -0.0359982)
        Viscous  : (0.369769 0.00177604 0.000448105)
    Sum of moments
        Total    : (0.00074483 0.008391 0.0222016)
        Pressure : (0.00075963 0.0086044 0.0193475)
        Viscous  : (-1.47998e-05 -0.000213407 0.00285409)
    writing force and moment files.

Time = 52

smoothSolver:  Solving for Ux, Initial residual = 5.79904e-05, Final residual = 5.67296e-06, No Iterations 1
smoothSolver:  Solving for Uy, Initial residual = 0.000725567, Final residual = 6.99812e-05, No Iterations 1
smoothSolver:  Solving for Uz, Initial residual = 0.00149502, Final residual = 0.000124288, No Iterations 1
GAMG:  Solving for p, Initial residual = 0.00267828, Final residual = 0.000110835, No Iterations 2
time step continuity errors : sum local = 6.48022e-06, global = -8.68206e-07, cumulative = 4.08745e-05
smoothSolver:  Solving for omega, Initial residual = 3.00307e-06, Final residual = 1.1672e-07, No Iterations 2
smoothSolver:  Solving for k, Initial residual = 0.000161648, Final residual = 3.80017e-06, No Iterations 2
ExecutionTime = 45.43 s  ClockTime = 46 s

forces forcesFish write:
    Sum of forces
        Total    : (1.96406 -0.0355679 -0.0352657)
        Pressure : (1.5947 -0.0373326 -0.0357102)
        Viscous  : (0.369358 0.00176472 0.000444418)
    Sum of moments
        Total    : (0.000737682 0.00833197 0.0215664)
        Pressure : (0.000752428 0.00854403 0.0187189)
        Viscous  : (-1.47464e-05 -0.000212058 0.00284747)
    writing force and moment files.

Time = 53

smoothSolver:  Solving for Ux, Initial residual = 5.42557e-05, Final residual = 5.36544e-06, No Iterations 1
smoothSolver:  Solving for Uy, Initial residual = 0.000694321, Final residual = 6.73436e-05, No Iterations 1
smoothSolver:  Solving for Uz, Initial residual = 0.00141516, Final residual = 0.000119005, No Iterations 1
GAMG:  Solving for p, Initial residual = 0.00251245, Final residual = 0.000108824, No Iterations 2
time step continuity errors : sum local = 6.35751e-06, global = -2.76876e-07, cumulative = 4.05976e-05
smoothSolver:  Solving for omega, Initial residual = 2.86897e-06, Final residual = 1.13056e-07, No Iterations 2
smoothSolver:  Solving for k, Initial residual = 0.000140296, Final residual = 3.44256e-06, No Iterations 2
ExecutionTime = 46.25 s  ClockTime = 47 s

forces forcesFish write:
    Sum of forces
        Total    : (1.96275 -0.037737 -0.0351362)
        Pressure : (1.59376 -0.0394886 -0.0355772)
        Viscous  : (0.368985 0.0017516 0.000441012)
    Sum of moments
        Total    : (0.000732377 0.00831369 0.0209502)
        Pressure : (0.000747072 0.00852449 0.0181094)
        Viscous  : (-1.46952e-05 -0.000210806 0.00284072)
    writing force and moment files.

Time = 54

smoothSolver:  Solving for Ux, Initial residual = 5.1365e-05, Final residual = 5.09952e-06, No Iterations 1
smoothSolver:  Solving for Uy, Initial residual = 0.000663639, Final residual = 6.48101e-05, No Iterations 1
smoothSolver:  Solving for Uz, Initial residual = 0.00133948, Final residual = 0.000114134, No Iterations 1
GAMG:  Solving for p, Initial residual = 0.00235403, Final residual = 0.000104537, No Iterations 2
time step continuity errors : sum local = 6.10326e-06, global = 2.58084e-07, cumulative = 4.08557e-05
smoothSolver:  Solving for omega, Initial residual = 2.72556e-06, Final residual = 1.09129e-07, No Iterations 2
smoothSolver:  Solving for k, Initial residual = 0.000122202, Final residual = 3.11224e-06, No Iterations 2
ExecutionTime = 47.1 s  ClockTime = 48 s

forces forcesFish write:
    Sum of forces
        Total    : (1.96139 -0.0398191 -0.0351146)
        Pressure : (1.59274 -0.041556 -0.0355521)
        Viscous  : (0.368648 0.00173691 0.000437551)
    Sum of moments
        Total    : (0.000728755 0.00832208 0.0203495)
        Pressure : (0.000743401 0.00853161 0.0175157)
        Viscous  : (-1.46463e-05 -0.000209526 0.00283387)
    writing force and moment files.

Time = 55

smoothSolver:  Solving for Ux, Initial residual = 4.96098e-05, Final residual = 4.88339e-06, No Iterations 1
smoothSolver:  Solving for Uy, Initial residual = 0.000635088, Final residual = 6.24588e-05, No Iterations 1
smoothSolver:  Solving for Uz, Initial residual = 0.00127025, Final residual = 0.000109893, No Iterations 1
GAMG:  Solving for p, Initial residual = 0.00220615, Final residual = 9.6841e-05, No Iterations 2
time step continuity errors : sum local = 5.65132e-06, global = 7.62617e-07, cumulative = 4.16184e-05
smoothSolver:  Solving for omega, Initial residual = 2.58191e-06, Final residual = 1.04951e-07, No Iterations 2
smoothSolver:  Solving for k, Initial residual = 0.00010683, Final residual = 2.81044e-06, No Iterations 2
ExecutionTime = 47.91 s  ClockTime = 48 s

forces forcesFish write:
    Sum of forces
        Total    : (1.95998 -0.0418168 -0.0351539)
        Pressure : (1.59163 -0.0435375 -0.0355883)
        Viscous  : (0.368347 0.00172071 0.000434487)
    Sum of moments
        Total    : (0.000726492 0.00834414 0.0197536)
        Pressure : (0.000741093 0.00855253 0.0169267)
        Viscous  : (-1.46005e-05 -0.000208389 0.00282696)
    writing force and moment files.

Time = 56

smoothSolver:  Solving for Ux, Initial residual = 4.88022e-05, Final residual = 4.71067e-06, No Iterations 1
smoothSolver:  Solving for Uy, Initial residual = 0.000609933, Final residual = 6.0317e-05, No Iterations 1
smoothSolver:  Solving for Uz, Initial residual = 0.00120851, Final residual = 0.000106264, No Iterations 1
GAMG:  Solving for p, Initial residual = 0.00206849, Final residual = 8.58238e-05, No Iterations 2
time step continuity errors : sum local = 5.00658e-06, global = 1.08182e-06, cumulative = 4.27002e-05
smoothSolver:  Solving for omega, Initial residual = 2.44079e-06, Final residual = 1.00601e-07, No Iterations 2
smoothSolver:  Solving for k, Initial residual = 9.37112e-05, Final residual = 2.53459e-06, No Iterations 2
ExecutionTime = 48.73 s  ClockTime = 49 s

forces forcesFish write:
    Sum of forces
        Total    : (1.95855 -0.0437587 -0.0352176)
        Pressure : (1.59047 -0.0454616 -0.035649)
        Viscous  : (0.368079 0.0017029 0.000431419)
    Sum of moments
        Total    : (0.000725241 0.00837012 0.0191493)
        Pressure : (0.000739799 0.00857736 0.0163294)
        Viscous  : (-1.45585e-05 -0.000207241 0.0028199)
    writing force and moment files.

Time = 57

smoothSolver:  Solving for Ux, Initial residual = 4.78021e-05, Final residual = 4.5365e-06, No Iterations 1
smoothSolver:  Solving for Uy, Initial residual = 0.000588111, Final residual = 5.84133e-05, No Iterations 1
smoothSolver:  Solving for Uz, Initial residual = 0.0011564, Final residual = 0.000103064, No Iterations 1
GAMG:  Solving for p, Initial residual = 0.00193873, Final residual = 7.32357e-05, No Iterations 2
time step continuity errors : sum local = 4.27136e-06, global = 1.24415e-06, cumulative = 4.39443e-05
smoothSolver:  Solving for omega, Initial residual = 2.30479e-06, Final residual = 9.61129e-08, No Iterations 2
smoothSolver:  Solving for k, Initial residual = 8.25155e-05, Final residual = 2.2835e-06, No Iterations 2
ExecutionTime = 49.52 s  ClockTime = 50 s

forces forcesFish write:
    Sum of forces
        Total    : (1.95712 -0.0457018 -0.035279)
        Pressure : (1.58928 -0.0473853 -0.0357077)
        Viscous  : (0.367844 0.00168354 0.000428749)
    Sum of moments
        Total    : (0.000724665 0.00839292 0.01852)
        Pressure : (0.000739185 0.00859916 0.0157073)
        Viscous  : (-1.45201e-05 -0.000206242 0.00281274)
    writing force and moment files.

Time = 58

smoothSolver:  Solving for Ux, Initial residual = 4.59805e-05, Final residual = 4.33895e-06, No Iterations 1
smoothSolver:  Solving for Uy, Initial residual = 0.000569691, Final residual = 5.67288e-05, No Iterations 1
smoothSolver:  Solving for Uz, Initial residual = 0.00112053, Final residual = 0.000100569, No Iterations 1
GAMG:  Solving for p, Initial residual = 0.00181973, Final residual = 6.99291e-05, No Iterations 2
time step continuity errors : sum local = 4.07854e-06, global = 1.13626e-06, cumulative = 4.50806e-05
smoothSolver:  Solving for omega, Initial residual = 2.17361e-06, Final residual = 9.14922e-08, No Iterations 2
smoothSolver:  Solving for k, Initial residual = 7.29036e-05, Final residual = 2.05537e-06, No Iterations 2
ExecutionTime = 50.36 s  ClockTime = 51 s

forces forcesFish write:
    Sum of forces
        Total    : (1.95574 -0.0477122 -0.0353226)
        Pressure : (1.5881 -0.049375 -0.0357488)
        Viscous  : (0.367638 0.00166275 0.000426189)
    Sum of moments
        Total    : (0.000724471 0.00840826 0.01785)
        Pressure : (0.000738957 0.00861354 0.0150445)
        Viscous  : (-1.44859e-05 -0.000205272 0.0028055)
    writing force and moment files.

Time = 59

smoothSolver:  Solving for Ux, Initial residual = 4.29705e-05, Final residual = 4.10239e-06, No Iterations 1
smoothSolver:  Solving for Uy, Initial residual = 0.000554003, Final residual = 5.52108e-05, No Iterations 1
smoothSolver:  Solving for Uz, Initial residual = 0.00109032, Final residual = 9.82543e-05, No Iterations 1
GAMG:  Solving for p, Initial residual = 0.0017127, Final residual = 7.02495e-05, No Iterations 2
time step continuity errors : sum local = 4.09868e-06, global = 8.89084e-07, cumulative = 4.59697e-05
smoothSolver:  Solving for omega, Initial residual = 2.04605e-06, Final residual = 8.67736e-08, No Iterations 2
smoothSolver:  Solving for k, Initial residual = 6.45586e-05, Final residual = 1.84829e-06, No Iterations 2
ExecutionTime = 51.19 s  ClockTime = 52 s

forces forcesFish write:
    Sum of forces
        Total    : (1.95444 -0.0496946 -0.0353472)
        Pressure : (1.58698 -0.0513352 -0.0357712)
        Viscous  : (0.36746 0.00164056 0.000423923)
    Sum of moments
        Total    : (0.00072447 0.0084151 0.0171732)
        Pressure : (0.000738925 0.00861951 0.014375)
        Viscous  : (-1.44552e-05 -0.000204412 0.00279818)
    writing force and moment files.

Time = 60

smoothSolver:  Solving for Ux, Initial residual = 3.95253e-05, Final residual = 3.84764e-06, No Iterations 1
smoothSolver:  Solving for Uy, Initial residual = 0.000539145, Final residual = 5.37038e-05, No Iterations 1
smoothSolver:  Solving for Uz, Initial residual = 0.0010538, Final residual = 9.54929e-05, No Iterations 1
GAMG:  Solving for p, Initial residual = 0.00161225, Final residual = 6.60311e-05, No Iterations 2
time step continuity errors : sum local = 3.85521e-06, global = 7.92491e-07, cumulative = 4.67621e-05
smoothSolver:  Solving for omega, Initial residual = 1.92212e-06, Final residual = 8.19771e-08, No Iterations 2
smoothSolver:  Solving for k, Initial residual = 5.72638e-05, Final residual = 1.66046e-06, No Iterations 2
ExecutionTime = 52.01 s  ClockTime = 53 s

forces forcesFish write:
    Sum of forces
        Total    : (1.95326 -0.0514238 -0.0353581)
        Pressure : (1.58596 -0.0530409 -0.0357799)
        Viscous  : (0.367308 0.00161712 0.000421736)
    Sum of moments
        Total    : (0.000724479 0.00841501 0.0165631)
        Pressure : (0.000738908 0.00861858 0.0137723)
        Viscous  : (-1.44291e-05 -0.000203573 0.00279081)
    writing force and moment files.

Time = 61

smoothSolver:  Solving for Ux, Initial residual = 3.68269e-05, Final residual = 3.62666e-06, No Iterations 1
smoothSolver:  Solving for Uy, Initial residual = 0.000521406, Final residual = 5.19633e-05, No Iterations 1
smoothSolver:  Solving for Uz, Initial residual = 0.00100699, Final residual = 9.19953e-05, No Iterations 1
GAMG:  Solving for p, Initial residual = 0.00151321, Final residual = 5.96917e-05, No Iterations 2
time step continuity errors : sum local = 3.48746e-06, global = 7.47978e-07, cumulative = 4.75101e-05
smoothSolver:  Solving for omega, Initial residual = 1.80195e-06, Final residual = 7.71622e-08, No Iterations 2
smoothSolver:  Solving for k, Initial residual = 5.08661e-05, Final residual = 1.4902e-06, No Iterations 2
ExecutionTime = 52.85 s  ClockTime = 53 s

forces forcesFish write:
    Sum of forces
        Total    : (1.9522 -0.0528006 -0.0353572)
        Pressure : (1.58502 -0.0543931 -0.035777)
        Viscous  : (0.367179 0.00159253 0.000419781)
    Sum of moments
        Total    : (0.000724304 0.0084098 0.0160542)
        Pressure : (0.000738711 0.00861261 0.0132708)
        Viscous  : (-1.44072e-05 -0.000202811 0.0027834)
    writing force and moment files.

Time = 62

smoothSolver:  Solving for Ux, Initial residual = 3.4562e-05, Final residual = 3.43457e-06, No Iterations 1
smoothSolver:  Solving for Uy, Initial residual = 0.000501315, Final residual = 4.99736e-05, No Iterations 1
smoothSolver:  Solving for Uz, Initial residual = 0.000953415, Final residual = 8.78909e-05, No Iterations 1
GAMG:  Solving for p, Initial residual = 0.00142104, Final residual = 5.63376e-05, No Iterations 2
time step continuity errors : sum local = 3.29287e-06, global = 5.75113e-07, cumulative = 4.80852e-05
smoothSolver:  Solving for omega, Initial residual = 1.68658e-06, Final residual = 7.23786e-08, No Iterations 2
smoothSolver:  Solving for k, Initial residual = 4.5217e-05, Final residual = 1.33606e-06, No Iterations 2
ExecutionTime = 53.69 s  ClockTime = 54 s

forces forcesFish write:
    Sum of forces
        Total    : (1.95123 -0.0538946 -0.0353456)
        Pressure : (1.58416 -0.0554616 -0.0357635)
        Viscous  : (0.367071 0.00156705 0.000417948)
    Sum of moments
        Total    : (0.000723809 0.00840086 0.0156281)
        Pressure : (0.000738198 0.00860295 0.0128521)
        Viscous  : (-1.43895e-05 -0.000202082 0.00277596)
    writing force and moment files.

Time = 63

smoothSolver:  Solving for Ux, Initial residual = 3.28609e-05, Final residual = 3.26929e-06, No Iterations 1
smoothSolver:  Solving for Uy, Initial residual = 0.000480804, Final residual = 4.78526e-05, No Iterations 1
smoothSolver:  Solving for Uz, Initial residual = 0.000899675, Final residual = 8.35353e-05, No Iterations 1
GAMG:  Solving for p, Initial residual = 0.0013349, Final residual = 5.45603e-05, No Iterations 2
time step continuity errors : sum local = 3.18948e-06, global = 2.89468e-07, cumulative = 4.83747e-05
smoothSolver:  Solving for omega, Initial residual = 1.57619e-06, Final residual = 6.76953e-08, No Iterations 2
smoothSolver:  Solving for k, Initial residual = 4.01903e-05, Final residual = 1.19669e-06, No Iterations 2
ExecutionTime = 54.53 s  ClockTime = 55 s

forces forcesFish write:
    Sum of forces
        Total    : (1.95031 -0.0548478 -0.0353227)
        Pressure : (1.58332 -0.0563885 -0.0357392)
        Viscous  : (0.366983 0.00154076 0.00041649)
    Sum of moments
        Total    : (0.000722928 0.00838833 0.0152419)
        Pressure : (0.000737303 0.00858981 0.0124734)
        Viscous  : (-1.43758e-05 -0.000201485 0.0027685)
    writing force and moment files.

Time = 64

smoothSolver:  Solving for Ux, Initial residual = 3.18903e-05, Final residual = 3.13321e-06, No Iterations 1
smoothSolver:  Solving for Uy, Initial residual = 0.000461765, Final residual = 4.57679e-05, No Iterations 1
smoothSolver:  Solving for Uz, Initial residual = 0.000850234, Final residual = 7.93722e-05, No Iterations 1
GAMG:  Solving for p, Initial residual = 0.00125321, Final residual = 5.12967e-05, No Iterations 2
time step continuity errors : sum local = 2.99869e-06, global = -2.8585e-08, cumulative = 4.83461e-05
smoothSolver:  Solving for omega, Initial residual = 1.47096e-06, Final residual = 6.3149e-08, No Iterations 2
smoothSolver:  Solving for k, Initial residual = 3.57026e-05, Final residual = 1.07085e-06, No Iterations 2
ExecutionTime = 55.37 s  ClockTime = 56 s

forces forcesFish write:
    Sum of forces
        Total    : (1.94942 -0.0557629 -0.0352886)
        Pressure : (1.58251 -0.0572768 -0.0357037)
        Viscous  : (0.366913 0.00151384 0.000415106)
    Sum of moments
        Total    : (0.000721658 0.00837211 0.0148632)
        Pressure : (0.000736024 0.00857301 0.0121022)
        Viscous  : (-1.43659e-05 -0.000200902 0.002761)
    writing force and moment files.

Time = 65

[...]
        Pressure : (1.57465 -0.0428734 -0.0373673)
        Viscous  : (0.369909 0.000653377 0.000431497)
    Sum of moments
        Total    : (0.000742836 0.00873408 0.013288)
        Pressure : (0.000757824 0.00894012 0.0107956)
        Viscous  : (-1.49886e-05 -0.000206037 0.00249235)
    writing force and moment files.

Time = 151

smoothSolver:  Solving for Ux, Initial residual = 1.42809e-06, Final residual = 7.87529e-08, No Iterations 1
smoothSolver:  Solving for Uy, Initial residual = 1.1665e-05, Final residual = 8.67074e-07, No Iterations 1
smoothSolver:  Solving for Uz, Initial residual = 2.84337e-05, Final residual = 2.11387e-06, No Iterations 1
GAMG:  Solving for p, Initial residual = 4.58987e-05, Final residual = 1.87042e-06, No Iterations 2
time step continuity errors : sum local = 1.09075e-07, global = -5.74378e-08, cumulative = 4.55736e-05
smoothSolver:  Solving for omega, Initial residual = 2.05028e-08, Final residual = 2.4291e-09, No Iterations 1
smoothSolver:  Solving for k, Initial residual = 4.74663e-07, Final residual = 1.76934e-08, No Iterations 1
ExecutionTime = 128.02 s  ClockTime = 129 s

forces forcesFish write:
    Sum of forces
        Total    : (1.94453 -0.04212 -0.0369411)
        Pressure : (1.57462 -0.0427741 -0.0373726)
        Viscous  : (0.369914 0.000654113 0.000431479)
    Sum of moments
        Total    : (0.000742771 0.00873602 0.0133277)
        Pressure : (0.00075776 0.00894206 0.0108351)
        Viscous  : (-1.49892e-05 -0.000206038 0.00249255)
    writing force and moment files.

Time = 152

smoothSolver:  Solving for Ux, Initial residual = 1.30618e-06, Final residual = 7.20845e-08, No Iterations 1
smoothSolver:  Solving for Uy, Initial residual = 1.088e-05, Final residual = 8.36741e-07, No Iterations 1
smoothSolver:  Solving for Uz, Initial residual = 2.66089e-05, Final residual = 2.05636e-06, No Iterations 1
GAMG:  Solving for p, Initial residual = 4.39208e-05, Final residual = 4.23906e-06, No Iterations 1
time step continuity errors : sum local = 2.47202e-07, global = -6.67053e-08, cumulative = 4.55069e-05
smoothSolver:  Solving for omega, Initial residual = 1.95202e-08, Final residual = 2.28139e-09, No Iterations 1
smoothSolver:  Solving for k, Initial residual = 4.4924e-07, Final residual = 1.71737e-08, No Iterations 1
ExecutionTime = 128.82 s  ClockTime = 129 s

forces forcesFish write:
    Sum of forces
        Total    : (1.94453 -0.0420599 -0.0369433)
        Pressure : (1.57461 -0.0427147 -0.0373748)
        Viscous  : (0.369919 0.000654834 0.000431485)
    Sum of moments
        Total    : (0.000742722 0.00873682 0.0133515)
        Pressure : (0.000757712 0.00894287 0.0108588)
        Viscous  : (-1.49897e-05 -0.000206048 0.00249276)
    writing force and moment files.

Time = 153

smoothSolver:  Solving for Ux, Initial residual = 1.21858e-06, Final residual = 6.91503e-08, No Iterations 1
smoothSolver:  Solving for Uy, Initial residual = 1.01265e-05, Final residual = 7.83298e-07, No Iterations 1
smoothSolver:  Solving for Uz, Initial residual = 2.48135e-05, Final residual = 1.92225e-06, No Iterations 1
GAMG:  Solving for p, Initial residual = 4.22658e-05, Final residual = 4.18448e-06, No Iterations 1
time step continuity errors : sum local = 2.44019e-07, global = -6.65072e-08, cumulative = 4.54404e-05
smoothSolver:  Solving for omega, Initial residual = 1.84793e-08, Final residual = 2.19244e-09, No Iterations 1
smoothSolver:  Solving for k, Initial residual = 4.2602e-07, Final residual = 1.63983e-08, No Iterations 1
ExecutionTime = 129.61 s  ClockTime = 130 s

forces forcesFish write:
    Sum of forces
        Total    : (1.94453 -0.0420026 -0.0369448)
        Pressure : (1.57461 -0.0426581 -0.0373762)
        Viscous  : (0.369923 0.000655507 0.000431436)
    Sum of moments
        Total    : (0.000742671 0.00873738 0.0133742)
        Pressure : (0.000757661 0.00894342 0.0108813)
        Viscous  : (-1.49899e-05 -0.000206036 0.00249295)
    writing force and moment files.

Time = 154

smoothSolver:  Solving for Ux, Initial residual = 1.13067e-06, Final residual = 6.46062e-08, No Iterations 1
smoothSolver:  Solving for Uy, Initial residual = 9.44551e-06, Final residual = 7.31274e-07, No Iterations 1
smoothSolver:  Solving for Uz, Initial residual = 2.31802e-05, Final residual = 1.79121e-06, No Iterations 1
GAMG:  Solving for p, Initial residual = 4.0603e-05, Final residual = 1.776e-06, No Iterations 2
time step continuity errors : sum local = 1.03568e-07, global = -5.51138e-08, cumulative = 4.53853e-05
smoothSolver:  Solving for omega, Initial residual = 1.76082e-08, Final residual = 2.10642e-09, No Iterations 1
smoothSolver:  Solving for k, Initial residual = 4.04619e-07, Final residual = 1.54662e-08, No Iterations 1
ExecutionTime = 130.43 s  ClockTime = 131 s

forces forcesFish write:
    Sum of forces
        Total    : (1.9445 -0.0419215 -0.0369456)
        Pressure : (1.57457 -0.0425776 -0.037377)
        Viscous  : (0.369928 0.000656168 0.000431437)
    Sum of moments
        Total    : (0.000742598 0.00873779 0.0134064)
        Pressure : (0.000757588 0.00894384 0.0109133)
        Viscous  : (-1.49901e-05 -0.000206044 0.00249313)
    writing force and moment files.

Time = 155

smoothSolver:  Solving for Ux, Initial residual = 1.0063e-06, Final residual = 5.80452e-08, No Iterations 1
smoothSolver:  Solving for Uy, Initial residual = 8.79477e-06, Final residual = 6.97844e-07, No Iterations 1
smoothSolver:  Solving for Uz, Initial residual = 2.16311e-05, Final residual = 1.71879e-06, No Iterations 1
GAMG:  Solving for p, Initial residual = 3.87058e-05, Final residual = 3.76907e-06, No Iterations 1
time step continuity errors : sum local = 2.19791e-07, global = -5.83805e-08, cumulative = 4.53269e-05
smoothSolver:  Solving for omega, Initial residual = 1.67301e-08, Final residual = 1.98644e-09, No Iterations 1
smoothSolver:  Solving for k, Initial residual = 3.81757e-07, Final residual = 1.49488e-08, No Iterations 1
ExecutionTime = 131.21 s  ClockTime = 132 s

forces forcesFish write:
    Sum of forces
        Total    : (1.94449 -0.0418736 -0.0369453)
        Pressure : (1.57456 -0.0425305 -0.0373767)
        Viscous  : (0.369931 0.000656813 0.00043139)
    Sum of moments
        Total    : (0.000742548 0.00873774 0.0134253)
        Pressure : (0.000757538 0.00894377 0.010932)
        Viscous  : (-1.49902e-05 -0.000206032 0.00249332)
    writing force and moment files.

Time = 156

smoothSolver:  Solving for Ux, Initial residual = 9.29375e-07, Final residual = 5.5399e-08, No Iterations 1
smoothSolver:  Solving for Uy, Initial residual = 8.17919e-06, Final residual = 6.49253e-07, No Iterations 1
smoothSolver:  Solving for Uz, Initial residual = 2.01089e-05, Final residual = 1.59154e-06, No Iterations 1
GAMG:  Solving for p, Initial residual = 3.70999e-05, Final residual = 3.69095e-06, No Iterations 1
time step continuity errors : sum local = 2.15235e-07, global = -5.37608e-08, cumulative = 4.52731e-05
smoothSolver:  Solving for omega, Initial residual = 1.58599e-08, Final residual = 1.90783e-09, No Iterations 1
smoothSolver:  Solving for k, Initial residual = 3.60159e-07, Final residual = 1.42096e-08, No Iterations 1
ExecutionTime = 131.99 s  ClockTime = 133 s

forces forcesFish write:
    Sum of forces
        Total    : (1.94449 -0.0418278 -0.0369446)
        Pressure : (1.57455 -0.0424853 -0.0373759)
        Viscous  : (0.369935 0.000657414 0.000431373)
    Sum of moments
        Total    : (0.000742497 0.00873751 0.0134434)
        Pressure : (0.000757488 0.00894355 0.0109499)
        Viscous  : (-1.49901e-05 -0.000206032 0.00249349)
    writing force and moment files.

Time = 157

smoothSolver:  Solving for Ux, Initial residual = 8.55289e-07, Final residual = 5.15225e-08, No Iterations 1
smoothSolver:  Solving for Uy, Initial residual = 7.63803e-06, Final residual = 6.04125e-07, No Iterations 1
smoothSolver:  Solving for Uz, Initial residual = 1.87633e-05, Final residual = 1.47417e-06, No Iterations 1
GAMG:  Solving for p, Initial residual = 3.54951e-05, Final residual = 1.54065e-06, No Iterations 2
time step continuity errors : sum local = 8.98416e-08, global = -4.39011e-08, cumulative = 4.52292e-05
smoothSolver:  Solving for omega, Initial residual = 1.49587e-08, Final residual = 1.80895e-09, No Iterations 1
smoothSolver:  Solving for k, Initial residual = 3.39855e-07, Final residual = 1.33119e-08, No Iterations 1
ExecutionTime = 132.82 s  ClockTime = 133 s

forces forcesFish write:
    Sum of forces
        Total    : (1.94446 -0.0417631 -0.0369422)
        Pressure : (1.57452 -0.0424211 -0.0373735)
        Viscous  : (0.369939 0.000657999 0.000431322)
    Sum of moments
        Total    : (0.000742424 0.00873681 0.0134691)
        Pressure : (0.000757414 0.00894283 0.0109754)
        Viscous  : (-1.49899e-05 -0.000206018 0.00249366)
    writing force and moment files.

Time = 158

smoothSolver:  Solving for Ux, Initial residual = 7.54296e-07, Final residual = 4.60591e-08, No Iterations 1
smoothSolver:  Solving for Uy, Initial residual = 7.12784e-06, Final residual = 5.74401e-07, No Iterations 1
smoothSolver:  Solving for Uz, Initial residual = 1.75026e-05, Final residual = 1.40549e-06, No Iterations 1
GAMG:  Solving for p, Initial residual = 3.36906e-05, Final residual = 3.23808e-06, No Iterations 1
time step continuity errors : sum local = 1.88823e-07, global = -4.03015e-08, cumulative = 4.51889e-05
smoothSolver:  Solving for omega, Initial residual = 1.42906e-08, Final residual = 1.72252e-09, No Iterations 1
smoothSolver:  Solving for k, Initial residual = 3.19266e-07, Final residual = 1.27698e-08, No Iterations 1
ExecutionTime = 133.61 s  ClockTime = 134 s

forces forcesFish write:
    Sum of forces
        Total    : (1.94446 -0.0417249 -0.0369402)
        Pressure : (1.57452 -0.0423835 -0.0373715)
        Viscous  : (0.369942 0.00065858 0.000431295)
    Sum of moments
        Total    : (0.000742376 0.00873615 0.0134842)
        Pressure : (0.000757366 0.00894216 0.0109903)
        Viscous  : (-1.49898e-05 -0.000206013 0.00249383)
    writing force and moment files.

Time = 159

smoothSolver:  Solving for Ux, Initial residual = 6.92787e-07, Final residual = 4.37756e-08, No Iterations 1
smoothSolver:  Solving for Uy, Initial residual = 6.62892e-06, Final residual = 5.33664e-07, No Iterations 1
smoothSolver:  Solving for Uz, Initial residual = 1.62417e-05, Final residual = 1.29861e-06, No Iterations 1
GAMG:  Solving for p, Initial residual = 3.21752e-05, Final residual = 3.11974e-06, No Iterations 1
time step continuity errors : sum local = 1.81922e-07, global = -3.33167e-08, cumulative = 4.51556e-05
smoothSolver:  Solving for omega, Initial residual = 1.34905e-08, Final residual = 1.64422e-09, No Iterations 1
smoothSolver:  Solving for k, Initial residual = 2.99869e-07, Final residual = 1.20949e-08, No Iterations 1
ExecutionTime = 134.4 s  ClockTime = 135 s

forces forcesFish write:
    Sum of forces
        Total    : (1.94446 -0.0416885 -0.0369378)
        Pressure : (1.57451 -0.0423476 -0.0373691)
        Viscous  : (0.369945 0.000659115 0.000431247)
    Sum of moments
        Total    : (0.000742328 0.00873535 0.0134986)
        Pressure : (0.000757318 0.00894135 0.0110046)
        Viscous  : (-1.49895e-05 -0.000206 0.00249399)
    writing force and moment files.

Time = 160

smoothSolver:  Solving for Ux, Initial residual = 6.36573e-07, Final residual = 4.07566e-08, No Iterations 1
smoothSolver:  Solving for Uy, Initial residual = 6.18628e-06, Final residual = 4.96378e-07, No Iterations 1
smoothSolver:  Solving for Uz, Initial residual = 1.51288e-05, Final residual = 1.20116e-06, No Iterations 1
GAMG:  Solving for p, Initial residual = 3.06912e-05, Final residual = 3.00695e-06, No Iterations 1
time step continuity errors : sum local = 1.75344e-07, global = -2.62594e-08, cumulative = 4.51294e-05
smoothSolver:  Solving for omega, Initial residual = 1.27494e-08, Final residual = 1.5616e-09, No Iterations 1
smoothSolver:  Solving for k, Initial residual = 2.81343e-07, Final residual = 1.14163e-08, No Iterations 1
ExecutionTime = 135.18 s  ClockTime = 136 s

forces forcesFish write:
    Sum of forces
        Total    : (1.94446 -0.0416535 -0.036935)
        Pressure : (1.57451 -0.0423131 -0.0373662)
        Viscous  : (0.369948 0.000659629 0.000431191)
    Sum of moments
        Total    : (0.00074228 0.00873441 0.0135125)
        Pressure : (0.000757269 0.0089404 0.0110184)
        Viscous  : (-1.49892e-05 -0.000205983 0.00249414)
    writing force and moment files.

Time = 161

smoothSolver:  Solving for Ux, Initial residual = 5.86817e-07, Final residual = 3.80353e-08, No Iterations 1
smoothSolver:  Solving for Uy, Initial residual = 5.77685e-06, Final residual = 4.62924e-07, No Iterations 1
smoothSolver:  Solving for Uz, Initial residual = 1.40943e-05, Final residual = 1.11386e-06, No Iterations 1
GAMG:  Solving for p, Initial residual = 2.92605e-05, Final residual = 2.8926e-06, No Iterations 1
time step continuity errors : sum local = 1.68676e-07, global = -1.92232e-08, cumulative = 4.51101e-05
smoothSolver:  Solving for omega, Initial residual = 1.20504e-08, Final residual = 1.48099e-09, No Iterations 1
smoothSolver:  Solving for k, Initial residual = 2.63714e-07, Final residual = 1.07557e-08, No Iterations 1
ExecutionTime = 136.01 s  ClockTime = 137 s

forces forcesFish write:
    Sum of forces
        Total    : (1.94446 -0.0416202 -0.0369318)
        Pressure : (1.57451 -0.0422803 -0.0373629)
        Viscous  : (0.369951 0.000660124 0.000431141)
    Sum of moments
        Total    : (0.000742231 0.00873332 0.0135258)
        Pressure : (0.00075722 0.00893929 0.0110315)
        Viscous  : (-1.49888e-05 -0.000205968 0.00249429)
    writing force and moment files.

Time = 162

smoothSolver:  Solving for Ux, Initial residual = 5.42503e-07, Final residual = 3.56126e-08, No Iterations 1
smoothSolver:  Solving for Uy, Initial residual = 5.3861e-06, Final residual = 4.32468e-07, No Iterations 1
smoothSolver:  Solving for Uz, Initial residual = 1.31048e-05, Final residual = 1.0361e-06, No Iterations 1
GAMG:  Solving for p, Initial residual = 2.78625e-05, Final residual = 2.77988e-06, No Iterations 1
time step continuity errors : sum local = 1.62102e-07, global = -1.22927e-08, cumulative = 4.50978e-05
smoothSolver:  Solving for omega, Initial residual = 1.13828e-08, Final residual = 1.40277e-09, No Iterations 1
smoothSolver:  Solving for k, Initial residual = 2.46987e-07, Final residual = 1.01305e-08, No Iterations 1
ExecutionTime = 136.79 s  ClockTime = 137 s

forces forcesFish write:
    Sum of forces
        Total    : (1.94447 -0.0415887 -0.0369281)
        Pressure : (1.57451 -0.0422493 -0.0373592)
        Viscous  : (0.369954 0.000660606 0.000431084)
    Sum of moments
        Total    : (0.000742183 0.00873208 0.0135385)
        Pressure : (0.000757171 0.00893804 0.0110441)
        Viscous  : (-1.49884e-05 -0.000205951 0.00249443)
    writing force and moment files.

Time = 163

smoothSolver:  Solving for Ux, Initial residual = 5.03238e-07, Final residual = 3.34386e-08, No Iterations 1
smoothSolver:  Solving for Uy, Initial residual = 5.01115e-06, Final residual = 4.04549e-07, No Iterations 1
smoothSolver:  Solving for Uz, Initial residual = 1.2151e-05, Final residual = 9.66321e-07, No Iterations 1
GAMG:  Solving for p, Initial residual = 2.65071e-05, Final residual = 1.02122e-06, No Iterations 2
time step continuity errors : sum local = 5.95501e-08, global = -8.02035e-09, cumulative = 4.50898e-05
smoothSolver:  Solving for omega, Initial residual = 1.07009e-08, Final residual = 1.31003e-09, No Iterations 1
smoothSolver:  Solving for k, Initial residual = 2.32583e-07, Final residual = 9.57509e-09, No Iterations 1
ExecutionTime = 137.59 s  ClockTime = 138 s

forces forcesFish write:
    Sum of forces
        Total    : (1.94446 -0.0415469 -0.0369209)
        Pressure : (1.57451 -0.042208 -0.0373519)
        Viscous  : (0.369956 0.000661075 0.000431036)
    Sum of moments
        Total    : (0.000742109 0.00872972 0.0135556)
        Pressure : (0.000757097 0.00893565 0.011061)
        Viscous  : (-1.4988e-05 -0.000205936 0.00249458)
    writing force and moment files.

Time = 164

smoothSolver:  Solving for Ux, Initial residual = 4.7042e-07, Final residual = 3.10931e-08, No Iterations 1
smoothSolver:  Solving for Uy, Initial residual = 4.64742e-06, Final residual = 3.88382e-07, No Iterations 1
smoothSolver:  Solving for Uz, Initial residual = 1.1235e-05, Final residual = 9.31013e-07, No Iterations 1
GAMG:  Solving for p, Initial residual = 2.49843e-05, Final residual = 2.33327e-06, No Iterations 1
time step continuity errors : sum local = 1.36059e-07, global = 3.81642e-10, cumulative = 4.50902e-05
smoothSolver:  Solving for omega, Initial residual = 1.02219e-08, Final residual = 1.26344e-09, No Iterations 1
smoothSolver:  Solving for k, Initial residual = 2.16878e-07, Final residual = 9.05021e-09, No Iterations 1
ExecutionTime = 138.43 s  ClockTime = 139 s

forces forcesFish write:
    Sum of forces
        Total    : (1.94447 -0.0415222 -0.0369164)
        Pressure : (1.57451 -0.0421838 -0.0373474)
        Viscous  : (0.369959 0.000661545 0.00043099)
    Sum of moments
        Total    : (0.000742064 0.00872817 0.0135656)
        Pressure : (0.000757051 0.00893409 0.0110709)
        Viscous  : (-1.49878e-05 -0.000205922 0.00249472)
    writing force and moment files.

Time = 165

smoothSolver:  Solving for Ux, Initial residual = 4.38274e-07, Final residual = 2.96381e-08, No Iterations 1
smoothSolver:  Solving for Uy, Initial residual = 4.2973e-06, Final residual = 3.62541e-07, No Iterations 1
smoothSolver:  Solving for Uz, Initial residual = 1.03369e-05, Final residual = 8.67453e-07, No Iterations 1
GAMG:  Solving for p, Initial residual = 2.37489e-05, Final residual = 2.23197e-06, No Iterations 1
time step continuity errors : sum local = 1.30152e-07, global = 6.74887e-09, cumulative = 4.50969e-05
smoothSolver:  Solving for omega, Initial residual = 9.65352e-09, Final residual = 9.65352e-09, No Iterations 0
smoothSolver:  Solving for k, Initial residual = 2.06756e-07, Final residual = 8.70557e-09, No Iterations 1
ExecutionTime = 139.22 s  ClockTime = 140 s

forces forcesFish write:
    Sum of forces
        Total    : (1.94448 -0.0414994 -0.0369115)
        Pressure : (1.57452 -0.0421614 -0.0373425)
        Viscous  : (0.369961 0.000661958 0.000430955)
    Sum of moments
        Total    : (0.000742018 0.0087265 0.0135749)
        Pressure : (0.000757006 0.00893241 0.0110801)
        Viscous  : (-1.49873e-05 -0.000205912 0.00249485)
    writing force and moment files.

Time = 166

smoothSolver:  Solving for Ux, Initial residual = 4.09649e-07, Final residual = 2.79929e-08, No Iterations 1
smoothSolver:  Solving for Uy, Initial residual = 3.98528e-06, Final residual = 3.37707e-07, No Iterations 1
smoothSolver:  Solving for Uz, Initial residual = 9.58158e-06, Final residual = 8.0678e-07, No Iterations 1
GAMG:  Solving for p, Initial residual = 2.25709e-05, Final residual = 2.1655e-06, No Iterations 1
time step continuity errors : sum local = 1.26276e-07, global = 1.27725e-08, cumulative = 4.51097e-05
smoothSolver:  Solving for omega, Initial residual = 1.20784e-08, Final residual = 1.461e-09, No Iterations 1
smoothSolver:  Solving for k, Initial residual = 1.94029e-07, Final residual = 8.23953e-09, No Iterations 1
ExecutionTime = 139.97 s  ClockTime = 140 s


SIMPLE solution converged in 166 iterations

forces forcesFish write:
    Sum of forces
        Total    : (1.94448 -0.0414783 -0.0369063)
        Pressure : (1.57452 -0.0421406 -0.0373372)
        Viscous  : (0.369963 0.000662358 0.000430871)
    Sum of moments
        Total    : (0.000741972 0.0087247 0.0135837)
        Pressure : (0.000756959 0.00893058 0.0110887)
        Viscous  : (-1.49868e-05 -0.000205882 0.00249497)
    writing force and moment files.

End

