/*---------------------------------------------------------------------------*\
| =========                 |                                                 |
| \\      /  F ield         | OpenFOAM: The Open Source CFD Toolbox           |
|  \\    /   O peration     | Version:  2512                                  |
|   \\  /    A nd           | Website:  www.openfoam.com                      |
|    \\/     M anipulation  |                                                 |
\*---------------------------------------------------------------------------*/
Build  : _bd2b6720-20260127 OPENFOAM=2512 version=2512
Arch   : "LSB;label=32;scalar=64"
Exec   : simpleFoam
Date   : Mar 29 2026
Time   : 11:40:52
Host   : mathias-laptop
PID    : 12371
I/O    : uncollated
Case   : /home/mat/OpenFOAM/mat-run/speed_sweep_runs/U_0p2
nProcs : 1
trapFpe: Floating point exception trapping enabled (FOAM_SIGFPE).
memory pool : not available
fileModificationChecking : Monitoring run-time modified files using timeStampMaster (fileModificationSkew 5, maxFileModificationPolls 20)
allowSystemOperations : Allowing user-supplied system call operations

// * * * * * * * * * * * * * * * * * * * * * * * * * * * * * * * * * * * * * //
Create time

Create mesh for time = 0


SIMPLE: convergence criteria
    field p	 tolerance 0.0001
    field U	 tolerance 1e-05
    field "(k|omega)"	 tolerance 1e-05

Reading field p

Reading field U

Reading/calculating face flux field phi

Selecting incompressible transport model Newtonian
Selecting turbulence model type RAS
Selecting RAS turbulence model kOmegaSST
Selecting patchDistMethod meshWave
RAS
{
    RASModel        kOmegaSST;
    turbulence      on;
    printCoeffs     on;
    alphaK1         0.85;
    alphaK2         1;
    alphaOmega1     0.5;
    alphaOmega2     0.856;
    gamma1          0.555556;
    gamma2          0.44;
    beta1           0.075;
    beta2           0.0828;
    betaStar        0.09;
    a1              0.31;
    b1              1;
    c1              10;
    F3              false;
    decayControl    false;
    kInf            0;
    omegaInf        0;
}

No MRF models present

No finite volume options present

Starting time loop

forces forcesFish:
    rho: rhoInf
    Freestream density (rhoInf) set to 1000
    Not including porosity effects

Time = 1

smoothSolver:  Solving for Ux, Initial residual = 1, Final residual = 0.08111, No Iterations 1
smoothSolver:  Solving for Uy, Initial residual = 1, Final residual = 0.0552761, No Iterations 2
smoothSolver:  Solving for Uz, Initial residual = 1, Final residual = 0.0553733, No Iterations 2
GAMG:  Solving for p, Initial residual = 1, Final residual = 0.0825397, No Iterations 5
time step continuity errors : sum local = 0.000198445, global = 7.00399e-06, cumulative = 7.00399e-06
smoothSolver:  Solving for omega, Initial residual = 0.020162, Final residual = 0.00113502, No Iterations 2
smoothSolver:  Solving for k, Initial residual = 1, Final residual = 0.0389401, No Iterations 2
ExecutionTime = 4.54 s  ClockTime = 5 s

forces forcesFish write:
    Sum of forces
        Total    : (0.218429 -7.77786e-05 -0.000273052)
        Pressure : (0.170997 -7.7453e-05 -0.000272651)
        Viscous  : (0.0474321 -3.25676e-07 -4.00924e-07)
    Sum of moments
        Total    : (2.39896e-08 5.85273e-05 2.10087e-05)
        Pressure : (2.42225e-08 5.83216e-05 2.12171e-05)
        Viscous  : (-2.3292e-10 2.05729e-07 -2.08422e-07)
    writing force and moment files.

Time = 2

smoothSolver:  Solving for Ux, Initial residual = 0.20387, Final residual = 0.0173192, No Iterations 2
smoothSolver:  Solving for Uy, Initial residual = 0.47281, Final residual = 0.0180928, No Iterations 3
smoothSolver:  Solving for Uz, Initial residual = 0.472551, Final residual = 0.0180961, No Iterations 3
GAMG:  Solving for p, Initial residual = 0.282452, Final residual = 0.0268609, No Iterations 2
time step continuity errors : sum local = 0.000830795, global = -3.70811e-05, cumulative = -3.00771e-05
smoothSolver:  Solving for omega, Initial residual = 0.00107093, Final residual = 3.85728e-05, No Iterations 2
smoothSolver:  Solving for k, Initial residual = 0.371532, Final residual = 0.0144388, No Iterations 2
ExecutionTime = 5.92 s  ClockTime = 6 s

forces forcesFish write:
    Sum of forces
        Total    : (0.208088 -0.000170694 -0.000306801)
        Pressure : (0.167748 -0.000171199 -0.000304103)
        Viscous  : (0.0403403 5.04794e-07 -2.69757e-06)
    Sum of moments
        Total    : (2.17104e-08 8.98247e-05 -1.98156e-05)
        Pressure : (2.47453e-08 8.9173e-05 -1.96456e-05)
        Viscous  : (-3.03489e-09 6.51731e-07 -1.70026e-07)
    writing force and moment files.

Time = 3

smoothSolver:  Solving for Ux, Initial residual = 0.0249701, Final residual = 0.00209445, No Iterations 2
smoothSolver:  Solving for Uy, Initial residual = 0.300506, Final residual = 0.0111056, No Iterations 3
smoothSolver:  Solving for Uz, Initial residual = 0.298402, Final residual = 0.0110673, No Iterations 3
GAMG:  Solving for p, Initial residual = 0.481436, Final residual = 0.0324242, No Iterations 2
time step continuity errors : sum local = 0.00104616, global = -2.88843e-05, cumulative = -5.89614e-05
smoothSolver:  Solving for omega, Initial residual = 0.000675138, Final residual = 2.8758e-05, No Iterations 2
smoothSolver:  Solving for k, Initial residual = 0.348991, Final residual = 0.0141734, No Iterations 2
ExecutionTime = 7.2 s  ClockTime = 7 s

forces forcesFish write:
    Sum of forces
        Total    : (0.168 -0.000108336 -0.000119061)
        Pressure : (0.1327 -0.000108698 -0.000116205)
        Viscous  : (0.0353001 3.61807e-07 -2.85565e-06)
    Sum of moments
        Total    : (2.17467e-08 5.81798e-05 -1.05861e-05)
        Pressure : (2.3798e-08 5.73866e-05 -1.0133e-05)
        Viscous  : (-2.05131e-09 7.93165e-07 -4.53075e-07)
    writing force and moment files.

Time = 4

smoothSolver:  Solving for Ux, Initial residual = 0.0129677, Final residual = 0.00104214, No Iterations 2
smoothSolver:  Solving for Uy, Initial residual = 0.195943, Final residual = 0.0069855, No Iterations 3
smoothSolver:  Solving for Uz, Initial residual = 0.194641, Final residual = 0.00696491, No Iterations 3
GAMG:  Solving for p, Initial residual = 0.543283, Final residual = 0.0508995, No Iterations 2
time step continuity errors : sum local = 0.00166224, global = -1.97777e-07, cumulative = -5.91592e-05
smoothSolver:  Solving for omega, Initial residual = 0.00050262, Final residual = 2.28791e-05, No Iterations 2
smoothSolver:  Solving for k, Initial residual = 0.294807, Final residual = 0.0123757, No Iterations 2
ExecutionTime = 8.47 s  ClockTime = 9 s

forces forcesFish write:
    Sum of forces
        Total    : (0.11373 9.37921e-05 0.00014319)
        Pressure : (0.081933 9.42732e-05 0.000144571)
        Viscous  : (0.031797 -4.81086e-07 -1.38062e-06)
    Sum of moments
        Total    : (2.20821e-08 1.63375e-05 3.84417e-05)
        Pressure : (1.89825e-08 1.57667e-05 3.91943e-05)
        Viscous  : (3.09952e-09 5.70811e-07 -7.52601e-07)
    writing force and moment files.

Time = 5

smoothSolver:  Solving for Ux, Initial residual = 0.0080085, Final residual = 0.000597623, No Iterations 2
smoothSolver:  Solving for Uy, Initial residual = 0.118682, Final residual = 0.0118435, No Iterations 2
smoothSolver:  Solving for Uz, Initial residual = 0.120083, Final residual = 0.0119897, No Iterations 2
GAMG:  Solving for p, Initial residual = 0.532326, Final residual = 0.0326153, No Iterations 3
time step continuity errors : sum local = 0.00096209, global = 4.73318e-05, cumulative = -1.18274e-05
smoothSolver:  Solving for omega, Initial residual = 0.000391671, Final residual = 1.78122e-05, No Iterations 2
smoothSolver:  Solving for k, Initial residual = 0.243856, Final residual = 0.01052, No Iterations 2
ExecutionTime = 9.84 s  ClockTime = 10 s

forces forcesFish write:
    Sum of forces
        Total    : (0.055264 0.000289191 0.000373559)
        Pressure : (0.025907 0.000290316 0.000373053)
        Viscous  : (0.029357 -1.12486e-06 5.06486e-07)
    Sum of moments
        Total    : (1.25232e-08 -2.8621e-05 8.06286e-05)
        Pressure : (6.42209e-09 -2.88208e-05 8.14054e-05)
        Viscous  : (6.10115e-09 1.99716e-07 -7.76833e-07)
    writing force and moment files.

Time = 6

smoothSolver:  Solving for Ux, Initial residual = 0.00489124, Final residual = 0.000291018, No Iterations 2
smoothSolver:  Solving for Uy, Initial residual = 0.0636472, Final residual = 0.00461351, No Iterations 2
smoothSolver:  Solving for Uz, Initial residual = 0.0651529, Final residual = 0.00477337, No Iterations 2
GAMG:  Solving for p, Initial residual = 0.365403, Final residual = 0.0273695, No Iterations 3
time step continuity errors : sum local = 0.000831322, global = 8.5291e-05, cumulative = 7.34637e-05
smoothSolver:  Solving for omega, Initial residual = 0.00031274, Final residual = 1.40239e-05, No Iterations 2
smoothSolver:  Solving for k, Initial residual = 0.202193, Final residual = 0.00898092, No Iterations 2
ExecutionTime = 11.24 s  ClockTime = 12 s

forces forcesFish write:
    Sum of forces
        Total    : (0.0109853 0.00034067 0.000476169)
        Pressure : (-0.0166312 0.00034237 0.000474324)
        Viscous  : (0.0276165 -1.70066e-06 1.84442e-06)
    Sum of moments
        Total    : (-1.31444e-09 -6.32124e-05 8.69864e-05)
        Pressure : (-7.49071e-09 -6.30487e-05 8.75417e-05)
        Viscous  : (6.17627e-09 -1.63627e-07 -5.55306e-07)
    writing force and moment files.

Time = 7

smoothSolver:  Solving for Ux, Initial residual = 0.00340381, Final residual = 0.000206782, No Iterations 2
smoothSolver:  Solving for Uy, Initial residual = 0.0655193, Final residual = 0.00503674, No Iterations 2
smoothSolver:  Solving for Uz, Initial residual = 0.0632562, Final residual = 0.00478179, No Iterations 2
GAMG:  Solving for p, Initial residual = 0.179634, Final residual = 0.0146198, No Iterations 3
time step continuity errors : sum local = 0.000542056, global = 0.000100108, cumulative = 0.000173572
smoothSolver:  Solving for omega, Initial residual = 0.000278687, Final residual = 1.14999e-05, No Iterations 2
smoothSolver:  Solving for k, Initial residual = 0.170381, Final residual = 0.00781273, No Iterations 2
ExecutionTime = 12.59 s  ClockTime = 13 s

forces forcesFish write:
    Sum of forces
        Total    : (-0.0147569 0.000270545 0.000408417)
        Pressure : (-0.0410851 0.000272228 0.000406323)
        Viscous  : (0.0263282 -1.68296e-06 2.09399e-06)
    Sum of moments
        Total    : (-1.01728e-08 -7.72492e-05 5.9518e-05)
        Pressure : (-1.73465e-08 -7.68151e-05 5.98636e-05)
        Viscous  : (7.17364e-09 -4.3414e-07 -3.45554e-07)
    writing force and moment files.

Time = 8

smoothSolver:  Solving for Ux, Initial residual = 0.00322069, Final residual = 0.000238013, No Iterations 2
smoothSolver:  Solving for Uy, Initial residual = 0.112148, Final residual = 0.00371497, No Iterations 3
smoothSolver:  Solving for Uz, Initial residual = 0.106427, Final residual = 0.0105796, No Iterations 2
GAMG:  Solving for p, Initial residual = 0.152968, Final residual = 0.0139828, No Iterations 2
time step continuity errors : sum local = 0.000585862, global = 0.000114171, cumulative = 0.000287743
smoothSolver:  Solving for omega, Initial residual = 0.000248926, Final residual = 9.83881e-06, No Iterations 2
smoothSolver:  Solving for k, Initial residual = 0.145506, Final residual = 0.00686618, No Iterations 2
ExecutionTime = 13.88 s  ClockTime = 14 s

forces forcesFish write:
    Sum of forces
        Total    : (-0.02115 0.000188615 0.00026584)
        Pressure : (-0.0464597 0.00019028 0.000264435)
        Viscous  : (0.0253097 -1.66447e-06 1.40475e-06)
    Sum of moments
        Total    : (-1.31187e-08 -7.03318e-05 3.5734e-05)
        Pressure : (-2.10438e-08 -6.98486e-05 3.5848e-05)
        Viscous  : (7.92515e-09 -4.83237e-07 -1.13963e-07)
    writing force and moment files.

Time = 9

smoothSolver:  Solving for Ux, Initial residual = 0.003489, Final residual = 0.000267387, No Iterations 2
smoothSolver:  Solving for Uy, Initial residual = 0.147624, Final residual = 0.00503253, No Iterations 3
smoothSolver:  Solving for Uz, Initial residual = 0.142494, Final residual = 0.00482971, No Iterations 3
GAMG:  Solving for p, Initial residual = 0.194679, Final residual = 0.0143504, No Iterations 2
time step continuity errors : sum local = 0.000611464, global = 0.000145532, cumulative = 0.000433274
smoothSolver:  Solving for omega, Initial residual = 0.000209114, Final residual = 8.60797e-06, No Iterations 2
smoothSolver:  Solving for k, Initial residual = 0.125359, Final residual = 0.00606488, No Iterations 2
ExecutionTime = 15.13 s  ClockTime = 15 s

forces forcesFish write:
    Sum of forces
        Total    : (-0.0149058 8.87271e-05 5.75668e-05)
        Pressure : (-0.0393267 9.04868e-05 5.77873e-05)
        Viscous  : (0.024421 -1.75962e-06 -2.20465e-07)
    Sum of moments
        Total    : (-1.31654e-08 -4.39838e-05 4.69918e-06)
        Pressure : (-2.05578e-08 -4.37504e-05 4.71144e-06)
        Viscous  : (7.39233e-09 -2.33428e-07 -1.22599e-08)
    writing force and moment files.

Time = 10

smoothSolver:  Solving for Ux, Initial residual = 0.00325416, Final residual = 0.000245988, No Iterations 2
smoothSolver:  Solving for Uy, Initial residual = 0.149942, Final residual = 0.00510996, No Iterations 3
smoothSolver:  Solving for Uz, Initial residual = 0.152147, Final residual = 0.005097, No Iterations 3
GAMG:  Solving for p, Initial residual = 0.220906, Final residual = 0.0199523, No Iterations 2
time step continuity errors : sum local = 0.00082509, global = 0.000148209, cumulative = 0.000581484
smoothSolver:  Solving for omega, Initial residual = 0.000169783, Final residual = 7.54097e-06, No Iterations 2
smoothSolver:  Solving for k, Initial residual = 0.108714, Final residual = 0.00537829, No Iterations 2
ExecutionTime = 16.48 s  ClockTime = 17 s

forces forcesFish write:
    Sum of forces
        Total    : (-0.00193604 -2.61364e-05 -0.000193956)
        Pressure : (-0.0255053 -2.39981e-05 -0.000191755)
        Viscous  : (0.0235692 -2.13831e-06 -2.20078e-06)
    Sum of moments
        Total    : (-9.77489e-09 -5.3592e-06 -3.25751e-05)
        Pressure : (-1.6767e-08 -5.5534e-06 -3.23606e-05)
        Viscous  : (6.99213e-09 1.94192e-07 -2.14551e-07)
    writing force and moment files.

Time = 11

smoothSolver:  Solving for Ux, Initial residual = 0.00268093, Final residual = 0.000194415, No Iterations 2
smoothSolver:  Solving for Uy, Initial residual = 0.119338, Final residual = 0.00395663, No Iterations 3
smoothSolver:  Solving for Uz, Initial residual = 0.12977, Final residual = 0.0127661, No Iterations 2
GAMG:  Solving for p, Initial residual = 0.220396, Final residual = 0.0109385, No Iterations 3
time step continuity errors : sum local = 0.000415531, global = 9.59397e-05, cumulative = 0.000677424
smoothSolver:  Solving for omega, Initial residual = 0.000143976, Final residual = 6.52688e-06, No Iterations 2
smoothSolver:  Solving for k, Initial residual = 0.0949054, Final residual = 0.00479281, No Iterations 2
ExecutionTime = 17.81 s  ClockTime = 18 s

forces forcesFish write:
    Sum of forces
        Total    : (0.0143604 -0.000173296 -0.000373339)
        Pressure : (-0.00836752 -0.000171213 -0.000369696)
        Viscous  : (0.0227279 -2.08339e-06 -3.64324e-06)
    Sum of moments
        Total    : (-3.55247e-09 3.01714e-05 -6.94936e-05)
        Pressure : (-1.02691e-08 2.95951e-05 -6.90476e-05)
        Viscous  : (6.71662e-09 5.7629e-07 -4.45944e-07)
    writing force and moment files.

Time = 12

smoothSolver:  Solving for Ux, Initial residual = 0.00200264, Final residual = 0.00012728, No Iterations 2
smoothSolver:  Solving for Uy, Initial residual = 0.0709131, Final residual = 0.0054432, No Iterations 2
smoothSolver:  Solving for Uz, Initial residual = 0.0797991, Final residual = 0.00629848, No Iterations 2
GAMG:  Solving for p, Initial residual = 0.194301, Final residual = 0.00999056, No Iterations 3
time step continuity errors : sum local = 0.000326577, global = 5.74151e-05, cumulative = 0.000734839
smoothSolver:  Solving for omega, Initial residual = 0.000126228, Final residual = 5.72367e-06, No Iterations 2
smoothSolver:  Solving for k, Initial residual = 0.0835453, Final residual = 0.00429721, No Iterations 2
ExecutionTime = 19.11 s  ClockTime = 19 s

forces forcesFish write:
    Sum of forces
        Total    : (0.0278819 -0.00025056 -0.000416941)
        Pressure : (0.0059708 -0.000249274 -0.000412943)
        Viscous  : (0.0219111 -1.28576e-06 -3.99819e-06)
    Sum of moments
        Total    : (2.23734e-09 5.03178e-05 -8.04284e-05)
        Pressure : (-3.63788e-09 4.9548e-05 -7.99312e-05)
        Viscous  : (5.87523e-09 7.69763e-07 -4.97191e-07)
    writing force and moment files.

Time = 13

smoothSolver:  Solving for Ux, Initial residual = 0.00179555, Final residual = 0.000104678, No Iterations 2
smoothSolver:  Solving for Uy, Initial residual = 0.0639077, Final residual = 0.0046345, No Iterations 2
smoothSolver:  Solving for Uz, Initial residual = 0.0673293, Final residual = 0.00472838, No Iterations 2
GAMG:  Solving for p, Initial residual = 0.15506, Final residual = 0.00787309, No Iterations 3
time step continuity errors : sum local = 0.000217836, global = 7.81272e-06, cumulative = 0.000742652
smoothSolver:  Solving for omega, Initial residual = 0.000114656, Final residual = 5.07617e-06, No Iterations 2
smoothSolver:  Solving for k, Initial residual = 0.0740745, Final residual = 0.00387343, No Iterations 2
ExecutionTime = 20.41 s  ClockTime = 21 s

forces forcesFish write:
    Sum of forces
        Total    : (0.0362945 -0.000254811 -0.000331176)
        Pressure : (0.0151465 -0.000254231 -0.000327552)
        Viscous  : (0.0211479 -5.79385e-07 -3.62313e-06)
    Sum of moments
        Total    : (6.7641e-09 5.25741e-05 -6.84112e-05)
        Pressure : (1.75443e-09 5.17027e-05 -6.78471e-05)
        Viscous  : (5.00968e-09 8.71308e-07 -5.64065e-07)
    writing force and moment files.

Time = 14

smoothSolver:  Solving for Ux, Initial residual = 0.00163473, Final residual = 0.000101246, No Iterations 2
smoothSolver:  Solving for Uy, Initial residual = 0.0714047, Final residual = 0.00634126, No Iterations 2
smoothSolver:  Solving for Uz, Initial residual = 0.073816, Final residual = 0.00632374, No Iterations 2
GAMG:  Solving for p, Initial residual = 0.143461, Final residual = 0.0121972, No Iterations 2
time step continuity errors : sum local = 0.000290964, global = -2.55155e-05, cumulative = 0.000717136
smoothSolver:  Solving for omega, Initial residual = 0.000103269, Final residual = 4.51474e-06, No Iterations 2
smoothSolver:  Solving for k, Initial residual = 0.0661117, Final residual = 0.00350909, No Iterations 2
ExecutionTime = 21.69 s  ClockTime = 22 s

forces forcesFish write:
    Sum of forces
        Total    : (0.038936 -0.000219121 -0.000208063)
        Pressure : (0.018475 -0.000219152 -0.0002053)
        Viscous  : (0.020461 3.07877e-08 -2.76237e-06)
    Sum of moments
        Total    : (9.0737e-09 4.38995e-05 -5.08942e-05)
        Pressure : (4.83107e-09 4.30615e-05 -5.03514e-05)
        Viscous  : (4.24263e-09 8.38051e-07 -5.42737e-07)
    writing force and moment files.

Time = 15

smoothSolver:  Solving for Ux, Initial residual = 0.00145457, Final residual = 9.44324e-05, No Iterations 2
smoothSolver:  Solving for Uy, Initial residual = 0.0674037, Final residual = 0.00632479, No Iterations 2
smoothSolver:  Solving for Uz, Initial residual = 0.0711256, Final residual = 0.0065107, No Iterations 2
GAMG:  Solving for p, Initial residual = 0.169634, Final residual = 0.0130109, No Iterations 2
time step continuity errors : sum local = 0.000288405, global = -5.87433e-05, cumulative = 0.000658393
smoothSolver:  Solving for omega, Initial residual = 9.12833e-05, Final residual = 4.07051e-06, No Iterations 2
smoothSolver:  Solving for k, Initial residual = 0.0593605, Final residual = 0.00319547, No Iterations 2
ExecutionTime = 22.93 s  ClockTime = 23 s

forces forcesFish write:
    Sum of forces
        Total    : (0.0376778 -0.000166738 -5.7366e-05)
        Pressure : (0.0178124 -0.000166995 -5.55704e-05)
        Viscous  : (0.0198654 2.5696e-07 -1.79565e-06)
    Sum of moments
        Total    : (9.58539e-09 2.82119e-05 -2.97396e-05)
        Pressure : (5.95107e-09 2.74672e-05 -2.92467e-05)
        Viscous  : (3.63432e-09 7.44631e-07 -4.92947e-07)
    writing force and moment files.

Time = 16

smoothSolver:  Solving for Ux, Initial residual = 0.00131075, Final residual = 8.53152e-05, No Iterations 2
smoothSolver:  Solving for Uy, Initial residual = 0.0540718, Final residual = 0.00513578, No Iterations 2
smoothSolver:  Solving for Uz, Initial residual = 0.0591693, Final residual = 0.00548459, No Iterations 2
GAMG:  Solving for p, Initial residual = 0.18468, Final residual = 0.0172799, No Iterations 2
time step continuity errors : sum local = 0.000378924, global = -9.62284e-05, cumulative = 0.000562164
smoothSolver:  Solving for omega, Initial residual = 7.9276e-05, Final residual = 3.6525e-06, No Iterations 2
smoothSolver:  Solving for k, Initial residual = 0.0536208, Final residual = 0.00292588, No Iterations 2
ExecutionTime = 24.19 s  ClockTime = 24 s

forces forcesFish write:
    Sum of forces
        Total    : (0.0341814 -9.82214e-05 0.000101668)
        Pressure : (0.0148199 -9.83149e-05 0.000102422)
        Viscous  : (0.0193614 9.35537e-08 -7.53804e-07)
    Sum of moments
        Total    : (8.58946e-09 8.08822e-06 -6.01328e-06)
        Pressure : (5.26217e-09 7.51088e-06 -5.56985e-06)
        Viscous  : (3.32729e-09 5.77341e-07 -4.43438e-07)
    writing force and moment files.

Time = 17

smoothSolver:  Solving for Ux, Initial residual = 0.00112537, Final residual = 7.29991e-05, No Iterations 2
smoothSolver:  Solving for Uy, Initial residual = 0.0379525, Final residual = 0.0035236, No Iterations 2
smoothSolver:  Solving for Uz, Initial residual = 0.0433435, Final residual = 0.00393922, No Iterations 2
GAMG:  Solving for p, Initial residual = 0.168296, Final residual = 0.00941694, No Iterations 3
time step continuity errors : sum local = 0.000212495, global = -3.94072e-05, cumulative = 0.000522757
smoothSolver:  Solving for omega, Initial residual = 6.87922e-05, Final residual = 3.20855e-06, No Iterations 2
smoothSolver:  Solving for k, Initial residual = 0.0487736, Final residual = 0.00269629, No Iterations 2
ExecutionTime = 25.49 s  ClockTime = 26 s

forces forcesFish write:
    Sum of forces
        Total    : (0.0292705 1.65663e-05 0.000222611)
        Pressure : (0.010336 1.66862e-05 0.000222432)
        Viscous  : (0.0189345 -1.19819e-07 1.79128e-07)
    Sum of moments
        Total    : (6.22571e-09 -1.34059e-05 2.36601e-05)
        Pressure : (3.04723e-09 -1.3771e-05 2.39994e-05)
        Viscous  : (3.17849e-09 3.65083e-07 -3.39318e-07)
    writing force and moment files.

Time = 18

smoothSolver:  Solving for Ux, Initial residual = 0.000802894, Final residual = 5.40984e-05, No Iterations 2
smoothSolver:  Solving for Uy, Initial residual = 0.0225967, Final residual = 0.00173268, No Iterations 2
smoothSolver:  Solving for Uz, Initial residual = 0.0258048, Final residual = 0.00195681, No Iterations 2
GAMG:  Solving for p, Initial residual = 0.140306, Final residual = 0.00818233, No Iterations 3
time step continuity errors : sum local = 0.000177791, global = -3.78391e-05, cumulative = 0.000484918
smoothSolver:  Solving for omega, Initial residual = 6.0821e-05, Final residual = 2.8831e-06, No Iterations 2
smoothSolver:  Solving for k, Initial residual = 0.0445925, Final residual = 0.00249703, No Iterations 2
ExecutionTime = 26.78 s  ClockTime = 27 s

forces forcesFish write:
    Sum of forces
        Total    : (0.0247341 9.84555e-05 0.000251305)
        Pressure : (0.00616188 9.87396e-05 0.000250572)
        Viscous  : (0.0185722 -2.84108e-07 7.32965e-07)
    Sum of moments
        Total    : (3.52795e-09 -2.65968e-05 3.9045e-05)
        Pressure : (5.55915e-10 -2.676e-05 3.92465e-05)
        Viscous  : (2.97203e-09 1.63125e-07 -2.01487e-07)
    writing force and moment files.

Time = 19

smoothSolver:  Solving for Ux, Initial residual = 0.000793542, Final residual = 4.80982e-05, No Iterations 2
smoothSolver:  Solving for Uy, Initial residual = 0.0199155, Final residual = 0.00138428, No Iterations 2
smoothSolver:  Solving for Uz, Initial residual = 0.0208065, Final residual = 0.00138085, No Iterations 2
GAMG:  Solving for p, Initial residual = 0.107155, Final residual = 0.00564661, No Iterations 3
time step continuity errors : sum local = 0.000117318, global = -2.92622e-05, cumulative = 0.000455656
smoothSolver:  Solving for omega, Initial residual = 5.58566e-05, Final residual = 2.59793e-06, No Iterations 2
smoothSolver:  Solving for k, Initial residual = 0.0409698, Final residual = 0.00232247, No Iterations 2
ExecutionTime = 28.09 s  ClockTime = 28 s

forces forcesFish write:
    Sum of forces
        Total    : (0.0213364 0.000138533 0.000204032)
        Pressure : (0.0030807 0.000138929 0.000203198)
        Viscous  : (0.0182557 -3.96392e-07 8.3407e-07)
    Sum of moments
        Total    : (1.20006e-09 -3.0525e-05 4.07643e-05)
        Pressure : (-1.58685e-09 -3.05348e-05 4.08446e-05)
        Viscous  : (2.7869e-09 9.8522e-09 -8.02233e-08)
    writing force and moment files.

Time = 20

smoothSolver:  Solving for Ux, Initial residual = 0.000859704, Final residual = 4.91411e-05, No Iterations 2
smoothSolver:  Solving for Uy, Initial residual = 0.0243484, Final residual = 0.00199169, No Iterations 2
smoothSolver:  Solving for Uz, Initial residual = 0.024961, Final residual = 0.00197557, No Iterations 2
GAMG:  Solving for p, Initial residual = 0.0917013, Final residual = 0.00706164, No Iterations 2
time step continuity errors : sum local = 0.000138746, global = -2.99304e-05, cumulative = 0.000425725
smoothSolver:  Solving for omega, Initial residual = 5.13701e-05, Final residual = 2.33557e-06, No Iterations 2
smoothSolver:  Solving for k, Initial residual = 0.0378004, Final residual = 0.00216753, No Iterations 2
ExecutionTime = 29.38 s  ClockTime = 30 s

forces forcesFish write:
    Sum of forces
        Total    : (0.0195124 0.000140138 0.000136623)
        Pressure : (0.00154181 0.000140584 0.000135976)
        Viscous  : (0.0179706 -4.46352e-07 6.47467e-07)
    Sum of moments
        Total    : (-4.11131e-10 -2.83875e-05 3.553e-05)
        Pressure : (-3.03121e-09 -2.83041e-05 3.55213e-05)
        Viscous  : (2.62008e-09 -8.33985e-08 8.63454e-09)
    writing force and moment files.

Time = 21

smoothSolver:  Solving for Ux, Initial residual = 0.000820967, Final residual = 4.7555e-05, No Iterations 2
smoothSolver:  Solving for Uy, Initial residual = 0.0258835, Final residual = 0.00224443, No Iterations 2
smoothSolver:  Solving for Uz, Initial residual = 0.027271, Final residual = 0.00229804, No Iterations 2
GAMG:  Solving for p, Initial residual = 0.103619, Final residual = 0.00641223, No Iterations 2
time step continuity errors : sum local = 0.000120839, global = -9.3893e-07, cumulative = 0.000424787
smoothSolver:  Solving for omega, Initial residual = 4.61154e-05, Final residual = 2.10206e-06, No Iterations 2
smoothSolver:  Solving for k, Initial residual = 0.0349776, Final residual = 0.00202689, No Iterations 2
ExecutionTime = 30.67 s  ClockTime = 31 s

forces forcesFish write:
    Sum of forces
        Total    : (0.0187898 0.000123597 5.19292e-05)
        Pressure : (0.00108559 0.000123996 5.16406e-05)
        Viscous  : (0.0177042 -3.98867e-07 2.88576e-07)
    Sum of moments
        Total    : (-1.30197e-09 -2.18419e-05 2.63074e-05)
        Pressure : (-3.79524e-09 -2.17257e-05 2.62443e-05)
        Viscous  : (2.49327e-09 -1.16143e-07 6.30859e-08)
    writing force and moment files.

Time = 22

smoothSolver:  Solving for Ux, Initial residual = 0.000740581, Final residual = 4.3574e-05, No Iterations 2
smoothSolver:  Solving for Uy, Initial residual = 0.0233025, Final residual = 0.00205353, No Iterations 2
smoothSolver:  Solving for Uz, Initial residual = 0.0257484, Final residual = 0.00220671, No Iterations 2
GAMG:  Solving for p, Initial residual = 0.115982, Final residual = 0.0084279, No Iterations 2
time step continuity errors : sum local = 0.000151219, global = 2.5862e-05, cumulative = 0.000450649
smoothSolver:  Solving for omega, Initial residual = 4.10491e-05, Final residual = 1.89002e-06, No Iterations 2
smoothSolver:  Solving for k, Initial residual = 0.0324566, Final residual = 0.00189903, No Iterations 2
ExecutionTime = 31.9 s  ClockTime = 32 s

forces forcesFish write:
    Sum of forces
        Total    : (0.0188055 9.44924e-05 -3.00634e-05)
        Pressure : (0.00135701 9.47661e-05 -2.99038e-05)
        Viscous  : (0.0174484 -2.73659e-07 -1.59587e-07)
    Sum of moments
        Total    : (-1.48977e-09 -1.31146e-05 1.51637e-05)
        Pressure : (-3.88095e-09 -1.3014e-05 1.50806e-05)
        Viscous  : (2.39119e-09 -1.00633e-07 8.3092e-08)
    writing force and moment files.

Time = 23

smoothSolver:  Solving for Ux, Initial residual = 0.000628247, Final residual = 3.76132e-05, No Iterations 2
smoothSolver:  Solving for Uy, Initial residual = 0.0181516, Final residual = 0.00156786, No Iterations 2
smoothSolver:  Solving for Uz, Initial residual = 0.0212287, Final residual = 0.00179794, No Iterations 2
GAMG:  Solving for p, Initial residual = 0.116922, Final residual = 0.0100187, No Iterations 2
time step continuity errors : sum local = 0.000172202, global = 4.1499e-05, cumulative = 0.000492148
smoothSolver:  Solving for omega, Initial residual = 3.64722e-05, Final residual = 1.69066e-06, No Iterations 2
smoothSolver:  Solving for k, Initial residual = 0.0301871, Final residual = 0.0017819, No Iterations 2
ExecutionTime = 33.14 s  ClockTime = 33 s

forces forcesFish write:
    Sum of forces
        Total    : (0.0192457 5.57237e-05 -9.36641e-05)
        Pressure : (0.00204808 5.58484e-05 -9.30677e-05)
        Viscous  : (0.0171976 -1.24655e-07 -5.964e-07)
    Sum of moments
        Total    : (-1.1036e-09 -3.7465e-06 3.57433e-06)
        Pressure : (-3.41857e-09 -3.69247e-06 3.50273e-06)
        Viscous  : (2.31497e-09 -5.40288e-08 7.16041e-08)
    writing force and moment files.

Time = 24

smoothSolver:  Solving for Ux, Initial residual = 0.000510275, Final residual = 3.14406e-05, No Iterations 2
smoothSolver:  Solving for Uy, Initial residual = 0.0133005, Final residual = 0.00103236, No Iterations 2
smoothSolver:  Solving for Uz, Initial residual = 0.0158734, Final residual = 0.00124178, No Iterations 2
GAMG:  Solving for p, Initial residual = 0.104991, Final residual = 0.0103967, No Iterations 2
time step continuity errors : sum local = 0.000174052, global = 4.14087e-05, cumulative = 0.000533556
smoothSolver:  Solving for omega, Initial residual = 3.28396e-05, Final residual = 1.50652e-06, No Iterations 2
smoothSolver:  Solving for k, Initial residual = 0.0281136, Final residual = 0.00167289, No Iterations 2
ExecutionTime = 34.41 s  ClockTime = 35 s

forces forcesFish write:
    Sum of forces
        Total    : (0.0198389 1.13985e-05 -0.000123326)
        Pressure : (0.00288986 1.1405e-05 -0.000122405)
        Viscous  : (0.0169491 -6.49314e-09 -9.20976e-07)
    Sum of moments
        Total    : (-3.82509e-10 4.35705e-06 -6.72723e-06)
        Pressure : (-2.62416e-09 4.3522e-06 -6.764e-06)
        Viscous  : (2.24165e-09 4.84691e-09 3.67644e-08)
    writing force and moment files.

Time = 25

smoothSolver:  Solving for Ux, Initial residual = 0.000420532, Final residual = 2.69479e-05, No Iterations 2
smoothSolver:  Solving for Uy, Initial residual = 0.0115506, Final residual = 0.000801917, No Iterations 2
smoothSolver:  Solving for Uz, Initial residual = 0.0128962, Final residual = 0.000892702, No Iterations 2
GAMG:  Solving for p, Initial residual = 0.0847653, Final residual = 0.00313006, No Iterations 3
time step continuity errors : sum local = 5.28614e-05, global = 9.746e-06, cumulative = 0.000543302
smoothSolver:  Solving for omega, Initial residual = 2.99163e-05, Final residual = 1.33747e-06, No Iterations 2
smoothSolver:  Solving for k, Initial residual = 0.0262187, Final residual = 0.00157164, No Iterations 2
ExecutionTime = 35.71 s  ClockTime = 36 s

forces forcesFish write:
    Sum of forces
        Total    : (0.0204154 -5.15613e-05 -8.88667e-05)
        Pressure : (0.00371158 -5.15362e-05 -8.78964e-05)
        Viscous  : (0.0167038 -2.50798e-08 -9.70353e-07)
    Sum of moments
        Total    : (4.66356e-10 9.1609e-06 -1.65019e-05)
        Pressure : (-1.68812e-09 9.10672e-06 -1.64813e-05)
        Viscous  : (2.15448e-09 5.41848e-08 -2.05866e-08)
    writing force and moment files.

Time = 26

smoothSolver:  Solving for Ux, Initial residual = 0.00037096, Final residual = 2.47975e-05, No Iterations 2
smoothSolver:  Solving for Uy, Initial residual = 0.0118222, Final residual = 0.000843111, No Iterations 2
smoothSolver:  Solving for Uz, Initial residual = 0.0122263, Final residual = 0.000852264, No Iterations 2
GAMG:  Solving for p, Initial residual = 0.0572825, Final residual = 0.005022, No Iterations 2
time step continuity errors : sum local = 9.72305e-05, global = 2.0558e-05, cumulative = 0.00056386
smoothSolver:  Solving for omega, Initial residual = 2.69891e-05, Final residual = 1.18824e-06, No Iterations 2
smoothSolver:  Solving for k, Initial residual = 0.0244815, Final residual = 0.00147705, No Iterations 2
ExecutionTime = 36.95 s  ClockTime = 37 s

forces forcesFish write:
    Sum of forces
        Total    : (0.0207073 -7.28913e-05 -5.96794e-05)
        Pressure : (0.00424411 -7.28252e-05 -5.88224e-05)
        Viscous  : (0.0164632 -6.60733e-08 -8.5698e-07)
    Sum of moments
        Total    : (1.10311e-09 1.10587e-05 -1.82818e-05)
        Pressure : (-9.26309e-10 1.09682e-05 -1.82109e-05)
        Viscous  : (2.02942e-09 9.05173e-08 -7.09533e-08)
    writing force and moment files.

Time = 27

smoothSolver:  Solving for Ux, Initial residual = 0.000397721, Final residual = 2.63108e-05, No Iterations 2
smoothSolver:  Solving for Uy, Initial residual = 0.0113829, Final residual = 0.000865278, No Iterations 2
smoothSolver:  Solving for Uz, Initial residual = 0.0120771, Final residual = 0.000895391, No Iterations 2
GAMG:  Solving for p, Initial residual = 0.0486421, Final residual = 0.00314721, No Iterations 2
time step continuity errors : sum local = 6.30279e-05, global = 1.74638e-05, cumulative = 0.000581324
smoothSolver:  Solving for omega, Initial residual = 2.44094e-05, Final residual = 1.05458e-06, No Iterations 2
smoothSolver:  Solving for k, Initial residual = 0.0228812, Final residual = 0.0013886, No Iterations 2
ExecutionTime = 38.18 s  ClockTime = 38 s

forces forcesFish write:
    Sum of forces
        Total    : (0.020741 -7.65805e-05 -2.18486e-05)
        Pressure : (0.00450905 -7.64617e-05 -2.11983e-05)
        Viscous  : (0.016232 -1.18758e-07 -6.50346e-07)
    Sum of moments
        Total    : (1.4465e-09 1.02336e-05 -1.61619e-05)
        Pressure : (-3.86168e-10 1.01275e-05 -1.60583e-05)
        Viscous  : (1.83267e-09 1.06136e-07 -1.03626e-07)
    writing force and moment files.

Time = 28

smoothSolver:  Solving for Ux, Initial residual = 0.000394769, Final residual = 2.5982e-05, No Iterations 2
smoothSolver:  Solving for Uy, Initial residual = 0.00991739, Final residual = 0.000758754, No Iterations 2
smoothSolver:  Solving for Uz, Initial residual = 0.0108122, Final residual = 0.00080779, No Iterations 2
GAMG:  Solving for p, Initial residual = 0.0472828, Final residual = 0.00279633, No Iterations 2
time step continuity errors : sum local = 5.74126e-05, global = 6.10057e-06, cumulative = 0.000587425
smoothSolver:  Solving for omega, Initial residual = 2.19868e-05, Final residual = 9.35538e-07, No Iterations 2
smoothSolver:  Solving for k, Initial residual = 0.0213961, Final residual = 0.00130527, No Iterations 2
ExecutionTime = 39.4 s  ClockTime = 40 s

forces forcesFish write:
    Sum of forces
        Total    : (0.0205614 -6.68364e-05 1.12649e-05)
        Pressure : (0.00455045 -6.66609e-05 1.16643e-05)
        Viscous  : (0.016011 -1.75538e-07 -3.99332e-07)
    Sum of moments
        Total    : (1.48871e-09 7.8038e-06 -1.18865e-05)
        Pressure : (-1.13277e-10 7.70177e-06 -1.17687e-05)
        Viscous  : (1.60199e-09 1.02034e-07 -1.17865e-07)
    writing force and moment files.

Time = 29

smoothSolver:  Solving for Ux, Initial residual = 0.000367627, Final residual = 2.44085e-05, No Iterations 2
smoothSolver:  Solving for Uy, Initial residual = 0.00798537, Final residual = 0.000594731, No Iterations 2
smoothSolver:  Solving for Uz, Initial residual = 0.00887804, Final residual = 0.000641108, No Iterations 2
GAMG:  Solving for p, Initial residual = 0.044891, Final residual = 0.00271218, No Iterations 2
time step continuity errors : sum local = 5.68008e-05, global = -8.14644e-06, cumulative = 0.000579278
smoothSolver:  Solving for omega, Initial residual = 1.97926e-05, Final residual = 8.30075e-07, No Iterations 2
smoothSolver:  Solving for k, Initial residual = 0.0200178, Final residual = 0.00122681, No Iterations 2
ExecutionTime = 40.67 s  ClockTime = 41 s

forces forcesFish write:
    Sum of forces
        Total    : (0.0202493 -4.8401e-05 3.65468e-05)
        Pressure : (0.00444853 -4.81747e-05 3.66998e-05)
        Viscous  : (0.0158007 -2.26294e-07 -1.52943e-07)
    Sum of moments
        Total    : (1.26992e-09 4.48683e-06 -6.50614e-06)
        Pressure : (-8.99719e-11 4.40492e-06 -6.39067e-06)
        Viscous  : (1.35989e-09 8.19106e-08 -1.15467e-07)
    writing force and moment files.

Time = 30

smoothSolver:  Solving for Ux, Initial residual = 0.000323888, Final residual = 2.19881e-05, No Iterations 2
smoothSolver:  Solving for Uy, Initial residual = 0.00613405, Final residual = 0.000434995, No Iterations 2
smoothSolver:  Solving for Uz, Initial residual = 0.00698462, Final residual = 0.000473826, No Iterations 2
GAMG:  Solving for p, Initial residual = 0.0404208, Final residual = 0.00285011, No Iterations 2
time step continuity errors : sum local = 6.04651e-05, global = -1.04412e-05, cumulative = 0.000568837
smoothSolver:  Solving for omega, Initial residual = 1.78934e-05, Final residual = 7.41868e-07, No Iterations 2
smoothSolver:  Solving for k, Initial residual = 0.018736, Final residual = 0.00115281, No Iterations 2
ExecutionTime = 41.93 s  ClockTime = 42 s

forces forcesFish write:
    Sum of forces
        Total    : (0.019866 -2.34044e-05 4.94154e-05)
        Pressure : (0.0042643 -2.31565e-05 4.93692e-05)
        Viscous  : (0.0156017 -2.47863e-07 4.61335e-08)
    Sum of moments
        Total    : (8.82816e-10 8.94527e-07 -6.58787e-07)
        Pressure : (-2.52192e-10 8.42839e-07 -5.60537e-07)
        Viscous  : (1.13501e-09 5.16871e-08 -9.82498e-08)
    writing force and moment files.

Time = 31

smoothSolver:  Solving for Ux, Initial residual = 0.000268139, Final residual = 1.92258e-05, No Iterations 2
smoothSolver:  Solving for Uy, Initial residual = 0.00509302, Final residual = 0.000337428, No Iterations 2
smoothSolver:  Solving for Uz, Initial residual = 0.00582892, Final residual = 0.000372524, No Iterations 2
GAMG:  Solving for p, Initial residual = 0.0354363, Final residual = 0.00294849, No Iterations 2
time step continuity errors : sum local = 6.21939e-05, global = -5.72759e-07, cumulative = 0.000568264
smoothSolver:  Solving for omega, Initial residual = 1.62867e-05, Final residual = 6.69233e-07, No Iterations 2
smoothSolver:  Solving for k, Initial residual = 0.0175419, Final residual = 0.0010829, No Iterations 2
ExecutionTime = 43.17 s  ClockTime = 43 s

forces forcesFish write:
    Sum of forces
        Total    : (0.0194639 5.28186e-06 4.52271e-05)
        Pressure : (0.00405063 5.50079e-06 4.50683e-05)
        Viscous  : (0.0154132 -2.18932e-07 1.58859e-07)
    Sum of moments
        Total    : (4.3354e-10 -2.22551e-06 4.78401e-06)
        Pressure : (-5.16371e-10 -2.24287e-06 4.85323e-06)
        Viscous  : (9.49911e-10 1.73582e-08 -6.92178e-08)
    writing force and moment files.

Time = 32

smoothSolver:  Solving for Ux, Initial residual = 0.000232769, Final residual = 1.70628e-05, No Iterations 2
smoothSolver:  Solving for Uy, Initial residual = 0.00500756, Final residual = 0.000346325, No Iterations 2
smoothSolver:  Solving for Uz, Initial residual = 0.00562475, Final residual = 0.000375959, No Iterations 2
GAMG:  Solving for p, Initial residual = 0.0320175, Final residual = 0.00268817, No Iterations 2
time step continuity errors : sum local = 5.48072e-05, global = 8.05171e-06, cumulative = 0.000576316
smoothSolver:  Solving for omega, Initial residual = 1.49158e-05, Final residual = 6.07289e-07, No Iterations 2
smoothSolver:  Solving for k, Initial residual = 0.0164262, Final residual = 0.00101673, No Iterations 2
ExecutionTime = 44.45 s  ClockTime = 45 s

forces forcesFish write:
    Sum of forces
        Total    : (0.019088 3.01556e-05 2.6481e-05)
        Pressure : (0.0038543 3.02979e-05 2.6312e-05)
        Viscous  : (0.0152337 -1.42295e-07 1.68975e-07)
    Sum of moments
        Total    : (1.71914e-11 -4.15523e-06 8.43528e-06)
        Pressure : (-8.00625e-10 -4.13981e-06 8.47068e-06)
        Viscous  : (8.17816e-10 -1.54116e-08 -3.5398e-08)
    writing force and moment files.

Time = 33

smoothSolver:  Solving for Ux, Initial residual = 0.000230887, Final residual = 1.62167e-05, No Iterations 2
smoothSolver:  Solving for Uy, Initial residual = 0.00500612, Final residual = 0.000358162, No Iterations 2
smoothSolver:  Solving for Uz, Initial residual = 0.00552353, Final residual = 0.000391832, No Iterations 2
GAMG:  Solving for p, Initial residual = 0.0303065, Final residual = 0.00219483, No Iterations 2
time step continuity errors : sum local = 4.24806e-05, global = 2.68953e-06, cumulative = 0.000579005
smoothSolver:  Solving for omega, Initial residual = 1.37027e-05, Final residual = 5.55988e-07, No Iterations 2
smoothSolver:  Solving for k, Initial residual = 0.015379, Final residual = 0.000953865, No Iterations 2
ExecutionTime = 45.7 s  ClockTime = 46 s

forces forcesFish write:
    Sum of forces
        Total    : (0.0187694 4.27946e-05 4.4589e-06)
        Pressure : (0.00370868 4.28443e-05 4.35784e-06)
        Viscous  : (0.0150607 -4.97172e-08 1.01066e-07)
    Sum of moments
        Total    : (-3.03586e-10 -4.77856e-06 9.37737e-06)
        Pressure : (-1.04565e-09 -4.73623e-06 9.38297e-06)
        Viscous  : (7.42062e-10 -4.23367e-08 -5.59813e-09)
    writing force and moment files.

Time = 34

smoothSolver:  Solving for Ux, Initial residual = 0.000244711, Final residual = 1.64965e-05, No Iterations 2
smoothSolver:  Solving for Uy, Initial residual = 0.00437762, Final residual = 0.000309296, No Iterations 2
smoothSolver:  Solving for Uz, Initial residual = 0.00499895, Final residual = 0.000354103, No Iterations 2
GAMG:  Solving for p, Initial residual = 0.0287374, Final residual = 0.00150592, No Iterations 2
time step continuity errors : sum local = 2.794e-05, global = -8.23086e-06, cumulative = 0.000570775
smoothSolver:  Solving for omega, Initial residual = 1.26594e-05, Final residual = 5.16222e-07, No Iterations 2
smoothSolver:  Solving for k, Initial residual = 0.0143924, Final residual = 0.000893949, No Iterations 2
ExecutionTime = 46.91 s  ClockTime = 47 s

forces forcesFish write:
    Sum of forces
        Total    : (0.0185263 4.18506e-05 -9.24861e-06)
        Pressure : (0.00363313 4.18274e-05 -9.25338e-06)
        Viscous  : (0.0148932 2.31925e-08 4.76579e-09)
    Sum of moments
        Total    : (-5.04134e-10 -4.51309e-06 8.0785e-06)
        Pressure : (-1.21641e-09 -4.45253e-06 8.06455e-06)
        Viscous  : (7.12277e-10 -6.05605e-08 1.39427e-08)
    writing force and moment files.

Time = 35

smoothSolver:  Solving for Ux, Initial residual = 0.000237058, Final residual = 1.59842e-05, No Iterations 2
smoothSolver:  Solving for Uy, Initial residual = 0.00358784, Final residual = 0.000239872, No Iterations 2
smoothSolver:  Solving for Uz, Initial residual = 0.00416553, Final residual = 0.00028458, No Iterations 2
GAMG:  Solving for p, Initial residual = 0.0265088, Final residual = 0.00148881, No Iterations 2
time step continuity errors : sum local = 2.7105e-05, global = -1.72397e-06, cumulative = 0.000569051
smoothSolver:  Solving for omega, Initial residual = 1.17343e-05, Final residual = 4.87648e-07, No Iterations 2
smoothSolver:  Solving for k, Initial residual = 0.0134637, Final residual = 0.000836898, No Iterations 2
ExecutionTime = 48.21 s  ClockTime = 48 s

forces forcesFish write:
    Sum of forces
        Total    : (0.0183336 3.37092e-05 -1.67668e-05)
        Pressure : (0.00360258 3.36424e-05 -1.66772e-05)
        Viscous  : (0.014731 6.67565e-08 -8.95455e-08)
    Sum of moments
        Total    : (-5.83372e-10 -3.7397e-06 5.73782e-06)
        Pressure : (-1.29922e-09 -3.67034e-06 5.71578e-06)
        Viscous  : (7.15851e-10 -6.93568e-08 2.20382e-08)
    writing force and moment files.

Time = 36

smoothSolver:  Solving for Ux, Initial residual = 0.000223975, Final residual = 1.52543e-05, No Iterations 2
smoothSolver:  Solving for Uy, Initial residual = 0.0029635, Final residual = 0.000187067, No Iterations 2
smoothSolver:  Solving for Uz, Initial residual = 0.00333288, Final residual = 0.000210682, No Iterations 2
GAMG:  Solving for p, Initial residual = 0.024083, Final residual = 0.00140242, No Iterations 2
time step continuity errors : sum local = 2.51963e-05, global = 4.57744e-06, cumulative = 0.000573628
smoothSolver:  Solving for omega, Initial residual = 1.09381e-05, Final residual = 4.66926e-07, No Iterations 2
smoothSolver:  Solving for k, Initial residual = 0.0125866, Final residual = 0.000782521, No Iterations 2
ExecutionTime = 49.47 s  ClockTime = 50 s

forces forcesFish write:
    Sum of forces
        Total    : (0.0181724 2.12478e-05 -1.92935e-05)
        Pressure : (0.00359929 2.11682e-05 -1.91329e-05)
        Viscous  : (0.0145731 7.96193e-08 -1.60625e-07)
    Sum of moments
        Total    : (-5.7355e-10 -2.64079e-06 2.87499e-06)
        Pressure : (-1.30288e-09 -2.56902e-06 2.85507e-06)
        Viscous  : (7.2933e-10 -7.17683e-08 1.99192e-08)
    writing force and moment files.

Time = 37

smoothSolver:  Solving for Ux, Initial residual = 0.000206439, Final residual = 1.43463e-05, No Iterations 2
smoothSolver:  Solving for Uy, Initial residual = 0.00265634, Final residual = 0.000165697, No Iterations 2
smoothSolver:  Solving for Uz, Initial residual = 0.00272392, Final residual = 0.000162152, No Iterations 2
GAMG:  Solving for p, Initial residual = 0.0216759, Final residual = 0.00133644, No Iterations 2
time step continuity errors : sum local = 2.38328e-05, global = 3.63038e-06, cumulative = 0.000577258
smoothSolver:  Solving for omega, Initial residual = 1.02677e-05, Final residual = 4.50529e-07, No Iterations 2
smoothSolver:  Solving for k, Initial residual = 0.0117566, Final residual = 0.000730665, No Iterations 2
ExecutionTime = 50.8 s  ClockTime = 51 s

forces forcesFish write:
    Sum of forces
        Total    : (0.0180288 5.86031e-06 -1.69561e-05)
        Pressure : (0.00361038 5.80077e-06 -1.67602e-05)
        Viscous  : (0.0144184 5.95412e-08 -1.95848e-07)
    Sum of moments
        Total    : (-5.16474e-10 -1.33701e-06 -2.09592e-07)
        Pressure : (-1.24862e-09 -1.26764e-06 -2.18657e-07)
        Viscous  : (7.32143e-10 -6.93744e-08 9.06461e-09)
    writing force and moment files.

Time = 38

smoothSolver:  Solving for Ux, Initial residual = 0.000180973, Final residual = 1.31312e-05, No Iterations 2
smoothSolver:  Solving for Uy, Initial residual = 0.00265482, Final residual = 0.000178607, No Iterations 2
smoothSolver:  Solving for Uz, Initial residual = 0.00254713, Final residual = 0.000161737, No Iterations 2
GAMG:  Solving for p, Initial residual = 0.0194504, Final residual = 0.0012914, No Iterations 2
time step continuity errors : sum local = 2.31647e-05, global = -2.76218e-06, cumulative = 0.000574496
smoothSolver:  Solving for omega, Initial residual = 9.71503e-06, Final residual = 4.37377e-07, No Iterations 2
smoothSolver:  Solving for k, Initial residual = 0.0109694, Final residual = 0.000681197, No Iterations 2
ExecutionTime = 52.08 s  ClockTime = 52 s

forces forcesFish write:
    Sum of forces
        Total    : (0.0178939 -9.73787e-06 -9.50107e-06)
        Pressure : (0.00362724 -9.74713e-06 -9.31322e-06)
        Viscous  : (0.0142667 9.25839e-09 -1.87845e-07)
    Sum of moments
        Total    : (-4.50819e-10 -1.22338e-07 -2.91446e-06)
        Pressure : (-1.16353e-09 -5.84053e-08 -2.90711e-06)
        Viscous  : (7.1271e-10 -6.39331e-08 -7.35059e-09)
    writing force and moment files.

Time = 39

smoothSolver:  Solving for Ux, Initial residual = 0.000157969, Final residual = 1.20972e-05, No Iterations 2
smoothSolver:  Solving for Uy, Initial residual = 0.00271178, Final residual = 0.000192927, No Iterations 2
smoothSolver:  Solving for Uz, Initial residual = 0.00266312, Final residual = 0.000182632, No Iterations 2
GAMG:  Solving for p, Initial residual = 0.0175375, Final residual = 0.00117295, No Iterations 2
time step continuity errors : sum local = 2.15484e-05, global = -5.32303e-06, cumulative = 0.000569173
smoothSolver:  Solving for omega, Initial residual = 9.24453e-06, Final residual = 4.26817e-07, No Iterations 2
smoothSolver:  Solving for k, Initial residual = 0.010222, Final residual = 0.000634029, No Iterations 2
ExecutionTime = 53.31 s  ClockTime = 54 s

forces forcesFish write:
    Sum of forces
        Total    : (0.0177616 -1.98025e-05 -5.38978e-07)
        Pressure : (0.00364339 -1.97505e-05 -3.94802e-07)
        Viscous  : (0.0141182 -5.19837e-08 -1.44176e-07)
    Sum of moments
        Total    : (-4.05075e-10 6.80247e-07 -4.34487e-06)
        Pressure : (-1.07543e-09 7.37982e-07 -4.32112e-06)
        Viscous  : (6.70351e-10 -5.77348e-08 -2.37539e-08)
    writing force and moment files.

Time = 40

smoothSolver:  Solving for Ux, Initial residual = 0.000140986, Final residual = 1.12993e-05, No Iterations 2
smoothSolver:  Solving for Uy, Initial residual = 0.00253909, Final residual = 0.000180792, No Iterations 2
smoothSolver:  Solving for Uz, Initial residual = 0.00259759, Final residual = 0.000180348, No Iterations 2
GAMG:  Solving for p, Initial residual = 0.0158375, Final residual = 0.000941193, No Iterations 2
time step continuity errors : sum local = 1.77897e-05, global = 6.5234e-07, cumulative = 0.000569826
smoothSolver:  Solving for omega, Initial residual = 8.81399e-06, Final residual = 4.17289e-07, No Iterations 2
smoothSolver:  Solving for k, Initial residual = 0.00951256, Final residual = 0.000589141, No Iterations 2
ExecutionTime = 54.57 s  ClockTime = 55 s

forces forcesFish write:
    Sum of forces
        Total    : (0.017627 -2.23898e-05 5.88424e-06)
        Pressure : (0.0036534 -2.22864e-05 5.9687e-06)
        Viscous  : (0.0139736 -1.0335e-07 -8.44545e-08)
    Sum of moments
        Total    : (-3.93665e-10 1.09851e-06 -4.40046e-06)
        Pressure : (-1.0027e-09 1.15136e-06 -4.36457e-06)
        Viscous  : (6.09034e-10 -5.28492e-08 -3.58875e-08)
    writing force and moment files.

Time = 41

smoothSolver:  Solving for Ux, Initial residual = 0.000132326, Final residual = 1.08829e-05, No Iterations 2
smoothSolver:  Solving for Uy, Initial residual = 0.00224454, Final residual = 0.000155072, No Iterations 2
smoothSolver:  Solving for Uz, Initial residual = 0.00232288, Final residual = 0.000157221, No Iterations 2
GAMG:  Solving for p, Initial residual = 0.0140643, Final residual = 0.000639392, No Iterations 2
time step continuity errors : sum local = 1.23228e-05, global = 4.53175e-06, cumulative = 0.000574357
smoothSolver:  Solving for omega, Initial residual = 8.42085e-06, Final residual = 4.08556e-07, No Iterations 2
smoothSolver:  Solving for k, Initial residual = 0.00883853, Final residual = 0.000546499, No Iterations 2
ExecutionTime = 55.82 s  ClockTime = 56 s

forces forcesFish write:
    Sum of forces
        Total    : (0.0174863 -1.93928e-05 8.25133e-06)
        Pressure : (0.00365375 -1.92589e-05 8.27873e-06)
        Viscous  : (0.0138325 -1.33837e-07 -2.74e-08)
    Sum of moments
        Total    : (-4.15383e-10 1.11657e-06 -3.57903e-06)
        Pressure : (-9.54759e-10 1.16713e-06 -3.53673e-06)
        Viscous  : (5.39376e-10 -5.05592e-08 -4.23019e-08)
    writing force and moment files.

Time = 42

smoothSolver:  Solving for Ux, Initial residual = 0.000129009, Final residual = 1.06332e-05, No Iterations 2
smoothSolver:  Solving for Uy, Initial residual = 0.00197724, Final residual = 0.00013174, No Iterations 2
smoothSolver:  Solving for Uz, Initial residual = 0.0020708, Final residual = 0.000134078, No Iterations 2
GAMG:  Solving for p, Initial residual = 0.0124908, Final residual = 0.000623047, No Iterations 2
time step continuity errors : sum local = 1.21196e-05, global = 1.53848e-06, cumulative = 0.000575896
smoothSolver:  Solving for omega, Initial residual = 8.06293e-06, Final residual = 4.00129e-07, No Iterations 2
smoothSolver:  Solving for k, Initial residual = 0.00819765, Final residual = 0.000506055, No Iterations 2
ExecutionTime = 57.09 s  ClockTime = 57 s

forces forcesFish write:
    Sum of forces
        Total    : (0.0173402 -1.39112e-05 8.0197e-06)
        Pressure : (0.00364572 -1.37669e-05 8.00399e-06)
        Viscous  : (0.0136945 -1.4435e-07 1.57158e-08)
    Sum of moments
        Total    : (-4.64742e-10 9.55604e-07 -2.3774e-06)
        Pressure : (-9.33766e-10 1.00569e-06 -2.33384e-06)
        Viscous  : (4.69024e-10 -5.00878e-08 -4.35577e-08)
    writing force and moment files.

Time = 43

smoothSolver:  Solving for Ux, Initial residual = 0.000126308, Final residual = 1.03648e-05, No Iterations 2
smoothSolver:  Solving for Uy, Initial residual = 0.00176728, Final residual = 0.000113901, No Iterations 2
smoothSolver:  Solving for Uz, Initial residual = 0.00188695, Final residual = 0.000118265, No Iterations 2
GAMG:  Solving for p, Initial residual = 0.0111447, Final residual = 0.000564219, No Iterations 2
time step continuity errors : sum local = 1.10523e-05, global = -1.11153e-06, cumulative = 0.000574784
smoothSolver:  Solving for omega, Initial residual = 7.74131e-06, Final residual = 3.92421e-07, No Iterations 2
smoothSolver:  Solving for k, Initial residual = 0.00758902, Final residual = 0.000467813, No Iterations 2
ExecutionTime = 58.34 s  ClockTime = 59 s

forces forcesFish write:
    Sum of forces
        Total    : (0.0171909 -7.28711e-06 5.95591e-06)
        Pressure : (0.00363123 -7.14971e-06 5.91641e-06)
        Viscous  : (0.0135597 -1.37398e-07 3.94932e-08)
    Sum of moments
        Total    : (-5.27282e-10 7.21105e-07 -1.01462e-06)
        Pressure : (-9.36584e-10 7.71721e-07 -9.74283e-07)
        Viscous  : (4.09302e-10 -5.06157e-08 -4.03408e-08)
    writing force and moment files.

Time = 44

smoothSolver:  Solving for Ux, Initial residual = 0.000122472, Final residual = 1.00416e-05, No Iterations 2
smoothSolver:  Solving for Uy, Initial residual = 0.00161637, Final residual = 0.000101609, No Iterations 2
smoothSolver:  Solving for Uz, Initial residual = 0.00176917, Final residual = 0.000109209, No Iterations 2
GAMG:  Solving for p, Initial residual = 0.0100633, Final residual = 0.000495523, No Iterations 2
time step continuity errors : sum local = 9.758e-06, global = -1.20549e-06, cumulative = 0.000573579
smoothSolver:  Solving for omega, Initial residual = 7.44387e-06, Final residual = 3.85202e-07, No Iterations 2
smoothSolver:  Solving for k, Initial residual = 0.00701194, Final residual = 0.000431774, No Iterations 2
ExecutionTime = 59.57 s  ClockTime = 60 s

forces forcesFish write:
    Sum of forces
        Total    : (0.0170404 -2.74165e-07 2.51137e-06)
        Pressure : (0.00361197 -1.58899e-07 2.46885e-06)
        Viscous  : (0.0134284 -1.15266e-07 4.25118e-08)
    Sum of moments
        Total    : (-5.90042e-10 4.67274e-07 3.67005e-07)
        Pressure : (-9.56884e-10 5.191e-07 4.00509e-07)
        Viscous  : (3.66842e-10 -5.1826e-08 -3.35037e-08)
    writing force and moment files.

Time = 45

smoothSolver:  Solving for Ux, Initial residual = 0.000117361, Final residual = 9.65819e-06, No Iterations 2
smoothSolver:  Solving for Uy, Initial residual = 0.00151961, Final residual = 9.40849e-05, No Iterations 2
smoothSolver:  Solving for Uz, Initial residual = 0.00168395, Final residual = 0.000103972, No Iterations 2
GAMG:  Solving for p, Initial residual = 0.00930477, Final residual = 0.000500205, No Iterations 2
time step continuity errors : sum local = 9.86954e-06, global = 6.20422e-07, cumulative = 0.000574199
smoothSolver:  Solving for omega, Initial residual = 7.1648e-06, Final residual = 3.78334e-07, No Iterations 2
smoothSolver:  Solving for k, Initial residual = 0.00646603, Final residual = 0.000397947, No Iterations 2
ExecutionTime = 60.83 s  ClockTime = 61 s

forces forcesFish write:
    Sum of forces
        Total    : (0.0168907 5.83516e-06 -1.61389e-06)
        Pressure : (0.00359027 5.91787e-06 -1.64135e-06)
        Viscous  : (0.0133004 -8.27039e-08 2.74675e-08)
    Sum of moments
        Total    : (-6.44426e-10 2.38962e-07 1.49456e-06)
        Pressure : (-9.8776e-10 2.92426e-07 1.51914e-06)
        Viscous  : (3.43334e-10 -5.34645e-08 -2.45806e-08)
    writing force and moment files.

Time = 46

smoothSolver:  Solving for Ux, Initial residual = 0.000113129, Final residual = 9.29038e-06, No Iterations 2
smoothSolver:  Solving for Uy, Initial residual = 0.00144246, Final residual = 8.85367e-05, No Iterations 2
smoothSolver:  Solving for Uz, Initial residual = 0.00159963, Final residual = 9.86365e-05, No Iterations 2
GAMG:  Solving for p, Initial residual = 0.00872435, Final residual = 0.000482085, No Iterations 2
time step continuity errors : sum local = 9.48378e-06, global = 5.51319e-07, cumulative = 0.000574751
smoothSolver:  Solving for omega, Initial residual = 6.91586e-06, Final residual = 3.7196e-07, No Iterations 2
smoothSolver:  Solving for k, Initial residual = 0.00595077, Final residual = 0.000366311, No Iterations 2
ExecutionTime = 62.09 s  ClockTime = 62 s

forces forcesFish write:
    Sum of forces
        Total    : (0.016745 9.14198e-06 -4.96287e-06)
        Pressure : (0.0035694 9.19157e-06 -4.96482e-06)
        Viscous  : (0.0131756 -4.95853e-08 1.94956e-09)
    Sum of moments
        Total    : (-6.87116e-10 7.52249e-08 2.0198e-06)
        Pressure : (-1.02303e-09 1.30332e-07 2.03582e-06)
        Viscous  : (3.35914e-10 -5.51072e-08 -1.60216e-08)
    writing force and moment files.

Time = 47

smoothSolver:  Solving for Ux, Initial residual = 0.000110691, Final residual = 9.0304e-06, No Iterations 2
smoothSolver:  Solving for Uy, Initial residual = 0.00136966, Final residual = 8.37861e-05, No Iterations 2
smoothSolver:  Solving for Uz, Initial residual = 0.00148868, Final residual = 9.13069e-05, No Iterations 2
GAMG:  Solving for p, Initial residual = 0.00821509, Final residual = 0.000407275, No Iterations 2
time step continuity errors : sum local = 7.97201e-06, global = -1.36193e-06, cumulative = 0.000573389
smoothSolver:  Solving for omega, Initial residual = 6.69828e-06, Final residual = 3.66115e-07, No Iterations 2
smoothSolver:  Solving for k, Initial residual = 0.00546586, Final residual = 0.000336837, No Iterations 2
ExecutionTime = 63.36 s  ClockTime = 64 s

forces forcesFish write:
    Sum of forces
        Total    : (0.0166054 9.22564e-06 -6.54528e-06)
        Pressure : (0.00355178 9.25078e-06 -6.52021e-06)
        Viscous  : (0.0130536 -2.51381e-08 -2.50692e-08)
    Sum of moments
        Total    : (-7.18201e-10 -1.7673e-08 1.90896e-06)
        Pressure : (-1.05777e-09 3.86523e-08 1.91875e-06)
        Viscous  : (3.39566e-10 -5.63253e-08 -9.7914e-09)
    writing force and moment files.

Time = 48

smoothSolver:  Solving for Ux, Initial residual = 0.000108806, Final residual = 8.83523e-06, No Iterations 2
smoothSolver:  Solving for Uy, Initial residual = 0.00130752, Final residual = 8.10191e-05, No Iterations 2
smoothSolver:  Solving for Uz, Initial residual = 0.00136621, Final residual = 8.40635e-05, No Iterations 2
GAMG:  Solving for p, Initial residual = 0.00765184, Final residual = 0.000327689, No Iterations 2
time step continuity errors : sum local = 6.39408e-06, global = -2.30009e-06, cumulative = 0.000571089
smoothSolver:  Solving for omega, Initial residual = 6.50695e-06, Final residual = 3.60612e-07, No Iterations 2
smoothSolver:  Solving for k, Initial residual = 0.00501123, Final residual = 0.000309479, No Iterations 2
ExecutionTime = 64.59 s  ClockTime = 65 s

forces forcesFish write:
    Sum of forces
        Total    : (0.0164724 7.18313e-06 -6.42248e-06)
        Pressure : (0.00353816 7.19605e-06 -6.37588e-06)
        Viscous  : (0.0129343 -1.29172e-08 -4.65934e-08)
    Sum of moments
        Total    : (-7.39262e-10 -5.45879e-08 1.40821e-06)
        Pressure : (-1.08815e-09 2.45667e-09 1.41478e-06)
        Viscous  : (3.48886e-10 -5.70446e-08 -6.57316e-09)
    writing force and moment files.

Time = 49

smoothSolver:  Solving for Ux, Initial residual = 0.000106807, Final residual = 8.65036e-06, No Iterations 2
smoothSolver:  Solving for Uy, Initial residual = 0.00125177, Final residual = 7.97835e-05, No Iterations 2
smoothSolver:  Solving for Uz, Initial residual = 0.00125254, Final residual = 7.85564e-05, No Iterations 2
GAMG:  Solving for p, Initial residual = 0.00711438, Final residual = 0.000298624, No Iterations 2
time step continuity errors : sum local = 5.82719e-06, global = -1.65137e-06, cumulative = 0.000569437
smoothSolver:  Solving for omega, Initial residual = 6.32931e-06, Final residual = 3.55188e-07, No Iterations 2
smoothSolver:  Solving for k, Initial residual = 0.00458684, Final residual = 0.000284189, No Iterations 2
ExecutionTime = 65.83 s  ClockTime = 66 s

forces forcesFish write:
    Sum of forces
        Total    : (0.016345 4.3162e-06 -5.31467e-06)
        Pressure : (0.00352741 4.32776e-06 -5.25555e-06)
        Viscous  : (0.0128176 -1.15598e-08 -5.91275e-08)
    Sum of moments
        Total    : (-7.52174e-10 -4.88801e-08 7.73909e-07)
        Pressure : (-1.11165e-09 8.57454e-09 7.79948e-07)
        Viscous  : (3.59476e-10 -5.74546e-08 -6.03832e-09)
    writing force and moment files.

Time = 50

smoothSolver:  Solving for Ux, Initial residual = 0.000104586, Final residual = 8.44382e-06, No Iterations 2
smoothSolver:  Solving for Uy, Initial residual = 0.0011983, Final residual = 7.89541e-05, No Iterations 2
smoothSolver:  Solving for Uz, Initial residual = 0.00115985, Final residual = 7.50487e-05, No Iterations 2
GAMG:  Solving for p, Initial residual = 0.00665724, Final residual = 0.000283247, No Iterations 2
time step continuity errors : sum local = 5.53876e-06, global = -5.03691e-07, cumulative = 0.000568933
smoothSolver:  Solving for omega, Initial residual = 6.16704e-06, Final residual = 3.49807e-07, No Iterations 2
smoothSolver:  Solving for k, Initial residual = 0.00419235, Final residual = 0.00026089, No Iterations 2
ExecutionTime = 67.04 s  ClockTime = 67 s

forces forcesFish write:
    Sum of forces
        Total    : (0.0162217 1.3509e-06 -3.79841e-06)
        Pressure : (0.00351827 1.36914e-06 -3.73635e-06)
        Viscous  : (0.0127034 -1.82339e-08 -6.2055e-08)
    Sum of moments
        Total    : (-7.5983e-10 -5.17698e-09 1.45226e-07)
        Pressure : (-1.12782e-09 5.25161e-08 1.52755e-07)
        Viscous  : (3.67995e-10 -5.76931e-08 -7.52907e-09)
    writing force and moment files.

Time = 51

smoothSolver:  Solving for Ux, Initial residual = 0.00010219, Final residual = 8.23291e-06, No Iterations 2
smoothSolver:  Solving for Uy, Initial residual = 0.00115083, Final residual = 7.77463e-05, No Iterations 2
smoothSolver:  Solving for Uz, Initial residual = 0.00109754, Final residual = 7.31954e-05, No Iterations 2
GAMG:  Solving for p, Initial residual = 0.00627159, Final residual = 0.000275467, No Iterations 2
time step continuity errors : sum local = 5.40349e-06, global = 4.7772e-07, cumulative = 0.000569411
smoothSolver:  Solving for omega, Initial residual = 6.02275e-06, Final residual = 3.44499e-07, No Iterations 2
smoothSolver:  Solving for k, Initial residual = 0.00382731, Final residual = 0.000239493, No Iterations 2
ExecutionTime = 68.26 s  ClockTime = 69 s

forces forcesFish write:
    Sum of forces
        Total    : (0.0161016 -1.23785e-06 -2.26791e-06)
        Pressure : (0.00351005 -1.20804e-06 -2.21106e-06)
        Viscous  : (0.0125915 -2.98021e-08 -5.68481e-08)
    Sum of moments
        Total    : (-7.64706e-10 6.76297e-08 -3.82993e-07)
        Pressure : (-1.13765e-09 1.25403e-07 -3.72753e-07)
        Viscous  : (3.72942e-10 -5.77728e-08 -1.02396e-08)
    writing force and moment files.

Time = 52

smoothSolver:  Solving for Ux, Initial residual = 9.97845e-05, Final residual = 8.02459e-06, No Iterations 2
smoothSolver:  Solving for Uy, Initial residual = 0.00110948, Final residual = 7.5832e-05, No Iterations 2
smoothSolver:  Solving for Uz, Initial residual = 0.00106281, Final residual = 7.19785e-05, No Iterations 2
GAMG:  Solving for p, Initial residual = 0.00593375, Final residual = 0.000272959, No Iterations 2
time step continuity errors : sum local = 5.37541e-06, global = 1.02861e-06, cumulative = 0.00057044
smoothSolver:  Solving for omega, Initial residual = 5.89559e-06, Final residual = 3.39169e-07, No Iterations 2
smoothSolver:  Solving for k, Initial residual = 0.00349107, Final residual = 0.000219895, No Iterations 2
ExecutionTime = 69.47 s  ClockTime = 70 s

forces forcesFish write:
    Sum of forces
        Total    : (0.0159841 -3.13804e-06 -1.00388e-06)
        Pressure : (0.00350225 -3.09479e-06 -9.57664e-07)
        Viscous  : (0.0124819 -4.3247e-08 -4.62145e-08)
    Sum of moments
        Total    : (-7.68293e-10 1.5717e-07 -7.48433e-07)
        Pressure : (-1.14283e-09 2.14826e-07 -7.35066e-07)
        Viscous  : (3.74532e-10 -5.76555e-08 -1.33669e-08)
    writing force and moment files.

Time = 53

smoothSolver:  Solving for Ux, Initial residual = 9.71963e-05, Final residual = 7.81317e-06, No Iterations 2
smoothSolver:  Solving for Uy, Initial residual = 0.00106999, Final residual = 7.3237e-05, No Iterations 2
smoothSolver:  Solving for Uz, Initial residual = 0.00104202, Final residual = 7.07985e-05, No Iterations 2
GAMG:  Solving for p, Initial residual = 0.00561071, Final residual = 0.00026618, No Iterations 2
time step continuity errors : sum local = 5.26712e-06, global = 1.05838e-06, cumulative = 0.000571498
smoothSolver:  Solving for omega, Initial residual = 5.77979e-06, Final residual = 3.33722e-07, No Iterations 2
smoothSolver:  Solving for k, Initial residual = 0.00318271, Final residual = 0.000201983, No Iterations 2
ExecutionTime = 70.73 s  ClockTime = 71 s

forces forcesFish write:
    Sum of forces
        Total    : (0.015869 -4.17216e-06 -1.82895e-07)
        Pressure : (0.00349451 -4.11633e-06 -1.49599e-07)
        Viscous  : (0.0123745 -5.58298e-08 -3.32963e-08)
    Sum of moments
        Total    : (-7.71253e-10 2.48534e-07 -9.18976e-07)
        Pressure : (-1.14519e-09 3.05906e-07 -9.02787e-07)
        Viscous  : (3.73938e-10 -5.73723e-08 -1.61891e-08)
    writing force and moment files.

Time = 54

smoothSolver:  Solving for Ux, Initial residual = 9.40946e-05, Final residual = 7.58537e-06, No Iterations 2
smoothSolver:  Solving for Uy, Initial residual = 0.00103023, Final residual = 7.01364e-05, No Iterations 2
smoothSolver:  Solving for Uz, Initial residual = 0.00102677, Final residual = 6.9414e-05, No Iterations 2
GAMG:  Solving for p, Initial residual = 0.00529258, Final residual = 0.000267079, No Iterations 2
time step continuity errors : sum local = 5.31573e-06, global = 7.81778e-07, cumulative = 0.00057228
smoothSolver:  Solving for omega, Initial residual = 5.67218e-06, Final residual = 3.28228e-07, No Iterations 2
smoothSolver:  Solving for k, Initial residual = 0.00290112, Final residual = 0.00018564, No Iterations 2
ExecutionTime = 71.95 s  ClockTime = 72 s

forces forcesFish write:
    Sum of forces
        Total    : (0.0157559 -4.28229e-06 1.15649e-07)
        Pressure : (0.0034866 -4.21708e-06 1.36684e-07)
        Viscous  : (0.0122693 -6.52122e-08 -2.10353e-08)
    Sum of moments
        Total    : (-7.7345e-10 3.25116e-07 -8.93122e-07)
        Pressure : (-1.14632e-09 3.82092e-07 -8.74981e-07)
        Viscous  : (3.72869e-10 -5.6976e-08 -1.81408e-08)
    writing force and moment files.

Time = 55

smoothSolver:  Solving for Ux, Initial residual = 9.03686e-05, Final residual = 7.33718e-06, No Iterations 2
smoothSolver:  Solving for Uy, Initial residual = 0.000991335, Final residual = 6.68981e-05, No Iterations 2
smoothSolver:  Solving for Uz, Initial residual = 0.0010126, Final residual = 6.77953e-05, No Iterations 2
GAMG:  Solving for p, Initial residual = 0.00498855, Final residual = 0.000254151, No Iterations 2
time step continuity errors : sum local = 5.0927e-06, global = 6.63675e-07, cumulative = 0.000572944
smoothSolver:  Solving for omega, Initial residual = 5.56987e-06, Final residual = 3.22703e-07, No Iterations 2
smoothSolver:  Solving for k, Initial residual = 0.0026449, Final residual = 0.000170741, No Iterations 2
ExecutionTime = 73.16 s  ClockTime = 73 s

forces forcesFish write:
    Sum of forces
        Total    : (0.0156447 -3.5955e-06 -7.44562e-08)
        Pressure : (0.00347844 -3.52563e-06 -6.28179e-08)
        Viscous  : (0.0121663 -6.98677e-08 -1.16382e-08)
    Sum of moments
        Total    : (-7.74418e-10 3.75861e-07 -7.10909e-07)
        Pressure : (-1.14737e-09 4.32414e-07 -6.91991e-07)
        Viscous  : (3.72951e-10 -5.6553e-08 -1.89187e-08)
    writing force and moment files.

Time = 56

smoothSolver:  Solving for Ux, Initial residual = 8.62512e-05, Final residual = 7.07498e-06, No Iterations 2
smoothSolver:  Solving for Uy, Initial residual = 0.000955035, Final residual = 6.38428e-05, No Iterations 2
smoothSolver:  Solving for Uz, Initial residual = 0.000993812, Final residual = 6.59031e-05, No Iterations 2
GAMG:  Solving for p, Initial residual = 0.00471554, Final residual = 0.000222652, No Iterations 2
time step continuity errors : sum local = 4.49281e-06, global = 8.54825e-07, cumulative = 0.000573798
smoothSolver:  Solving for omega, Initial residual = 5.47191e-06, Final residual = 3.17161e-07, No Iterations 2
smoothSolver:  Solving for k, Initial residual = 0.00241247, Final residual = 0.000157165, No Iterations 2
ExecutionTime = 74.4 s  ClockTime = 75 s

forces forcesFish write:
    Sum of forces
        Total    : (0.0155357 -2.45652e-06 -5.97478e-07)
        Pressure : (0.00347022 -2.38688e-06 -5.91268e-07)
        Viscous  : (0.0120655 -6.96479e-08 -6.20941e-09)
    Sum of moments
        Total    : (-7.7394e-10 4.01521e-07 -4.52099e-07)
        Pressure : (-1.14909e-09 4.57652e-07 -4.33534e-07)
        Viscous  : (3.75146e-10 -5.61313e-08 -1.85643e-08)
    writing force and moment files.

Time = 57

smoothSolver:  Solving for Ux, Initial residual = 8.24011e-05, Final residual = 6.81834e-06, No Iterations 2
smoothSolver:  Solving for Uy, Initial residual = 0.00091964, Final residual = 6.11022e-05, No Iterations 2
smoothSolver:  Solving for Uz, Initial residual = 0.000965225, Final residual = 6.36378e-05, No Iterations 2
GAMG:  Solving for p, Initial residual = 0.00446504, Final residual = 0.000189221, No Iterations 2
time step continuity errors : sum local = 3.84186e-06, global = 1.01482e-06, cumulative = 0.000574813
smoothSolver:  Solving for omega, Initial residual = 5.37652e-06, Final residual = 3.11584e-07, No Iterations 2
smoothSolver:  Solving for k, Initial residual = 0.00220211, Final residual = 0.000144794, No Iterations 2
ExecutionTime = 75.65 s  ClockTime = 76 s

forces forcesFish write:
    Sum of forces
        Total    : (0.015429 -1.29359e-06 -1.22919e-06)
        Pressure : (0.00346223 -1.22782e-06 -1.22443e-06)
        Viscous  : (0.0119668 -6.57718e-08 -4.76052e-09)
    Sum of moments
        Total    : (-7.72084e-10 4.10743e-07 -2.05413e-07)
        Pressure : (-1.15183e-09 4.66423e-07 -1.88032e-07)
        Viscous  : (3.79749e-10 -5.56796e-08 -1.73812e-08)
    writing force and moment files.

Time = 58

smoothSolver:  Solving for Ux, Initial residual = 7.90996e-05, Final residual = 6.58416e-06, No Iterations 2
smoothSolver:  Solving for Uy, Initial residual = 0.000885437, Final residual = 5.8751e-05, No Iterations 2
smoothSolver:  Solving for Uz, Initial residual = 0.000926234, Final residual = 6.10609e-05, No Iterations 2
GAMG:  Solving for p, Initial residual = 0.00423107, Final residual = 0.000178577, No Iterations 2
time step continuity errors : sum local = 3.64304e-06, global = 8.01759e-07, cumulative = 0.000575615
smoothSolver:  Solving for omega, Initial residual = 5.28208e-06, Final residual = 3.05847e-07, No Iterations 2
smoothSolver:  Solving for k, Initial residual = 0.00201203, Final residual = 0.000133512, No Iterations 2
ExecutionTime = 76.88 s  ClockTime = 77 s

forces forcesFish write:
    Sum of forces
        Total    : (0.0153246 -3.80397e-07 -1.81601e-06)
        Pressure : (0.0034545 -3.20375e-07 -1.80938e-06)
        Viscous  : (0.0118701 -6.00221e-08 -6.62472e-09)
    Sum of moments
        Total    : (-7.69272e-10 4.14818e-07 -2.17023e-08)
        Pressure : (-1.15561e-09 4.69954e-07 -5.93221e-09)
        Viscous  : (3.86336e-10 -5.51356e-08 -1.57701e-08)
    writing force and moment files.

Time = 59

smoothSolver:  Solving for Ux, Initial residual = 7.61995e-05, Final residual = 6.36962e-06, No Iterations 2
smoothSolver:  Solving for Uy, Initial residual = 0.000853263, Final residual = 5.68418e-05, No Iterations 2
smoothSolver:  Solving for Uz, Initial residual = 0.000880495, Final residual = 5.84434e-05, No Iterations 2
GAMG:  Solving for p, Initial residual = 0.00402431, Final residual = 0.000173359, No Iterations 2
time step continuity errors : sum local = 3.54903e-06, global = 3.70295e-07, cumulative = 0.000575985
smoothSolver:  Solving for omega, Initial residual = 5.18667e-06, Final residual = 2.99876e-07, No Iterations 2
smoothSolver:  Solving for k, Initial residual = 0.00184046, Final residual = 0.000123217, No Iterations 2
ExecutionTime = 78.12 s  ClockTime = 78 s

forces forcesFish write:
    Sum of forces
        Total    : (0.0152224 2.10151e-07 -2.30489e-06)
        Pressure : (0.0034468 2.64055e-07 -2.29406e-06)
        Viscous  : (0.0117756 -5.39045e-08 -1.08301e-08)
    Sum of moments
        Total    : (-7.65869e-10 4.22488e-07 8.96127e-08)
        Pressure : (-1.16016e-09 4.76951e-07 1.03677e-07)
        Viscous  : (3.94288e-10 -5.44626e-08 -1.40644e-08)
    writing force and moment files.

Time = 60

smoothSolver:  Solving for Ux, Initial residual = 7.3602e-05, Final residual = 6.17049e-06, No Iterations 2
smoothSolver:  Solving for Uy, Initial residual = 0.000822933, Final residual = 5.5312e-05, No Iterations 2
smoothSolver:  Solving for Uz, Initial residual = 0.000834183, Final residual = 5.60311e-05, No Iterations 2
GAMG:  Solving for p, Initial residual = 0.0038409, Final residual = 0.000157445, No Iterations 2
time step continuity errors : sum local = 3.23181e-06, global = -1.11411e-07, cumulative = 0.000575874
smoothSolver:  Solving for omega, Initial residual = 5.09112e-06, Final residual = 2.93704e-07, No Iterations 2
smoothSolver:  Solving for k, Initial residual = 0.00168566, Final residual = 0.000113812, No Iterations 2
ExecutionTime = 79.35 s  ClockTime = 80 s

forces forcesFish write:
    Sum of forces
        Total    : (0.015122 4.81437e-07 -2.6751e-06)
        Pressure : (0.00343898 5.29941e-07 -2.65884e-06)
        Viscous  : (0.011683 -4.85037e-08 -1.62558e-08)
    Sum of moments
        Total    : (-7.62334e-10 4.37386e-07 1.32528e-07)
        Pressure : (-1.16512e-09 4.91107e-07 1.45055e-07)
        Viscous  : (4.02782e-10 -5.3721e-08 -1.25271e-08)
    writing force and moment files.

Time = 61

smoothSolver:  Solving for Ux, Initial residual = 7.13396e-05, Final residual = 5.98556e-06, No Iterations 2
smoothSolver:  Solving for Uy, Initial residual = 0.000793676, Final residual = 5.39583e-05, No Iterations 2
smoothSolver:  Solving for Uz, Initial residual = 0.000791703, Final residual = 5.39351e-05, No Iterations 2
GAMG:  Solving for p, Initial residual = 0.00367002, Final residual = 0.000139713, No Iterations 2
time step continuity errors : sum local = 2.8738e-06, global = -4.67325e-07, cumulative = 0.000575407
smoothSolver:  Solving for omega, Initial residual = 4.99603e-06, Final residual = 2.87416e-07, No Iterations 2
smoothSolver:  Solving for k, Initial residual = 0.00154598, Final residual = 0.000105209, No Iterations 2
ExecutionTime = 80.65 s  ClockTime = 81 s

forces forcesFish write:
    Sum of forces
        Total    : (0.0150237 4.75579e-07 -2.91366e-06)
        Pressure : (0.00343114 5.20063e-07 -2.89182e-06)
        Viscous  : (0.0115925 -4.44846e-08 -2.18364e-08)
    Sum of moments
        Total    : (-7.59013e-10 4.59586e-07 1.18383e-07)
        Pressure : (-1.17014e-09 5.12531e-07 1.29684e-07)
        Viscous  : (4.11132e-10 -5.29451e-08 -1.13009e-08)
    writing force and moment files.

Time = 62

smoothSolver:  Solving for Ux, Initial residual = 6.94667e-05, Final residual = 5.81693e-06, No Iterations 2
smoothSolver:  Solving for Uy, Initial residual = 0.000766236, Final residual = 5.2733e-05, No Iterations 2
smoothSolver:  Solving for Uz, Initial residual = 0.000755791, Final residual = 5.22289e-05, No Iterations 2
GAMG:  Solving for p, Initial residual = 0.00350764, Final residual = 0.000139368, No Iterations 2
time step continuity errors : sum local = 2.87104e-06, global = -6.39969e-07, cumulative = 0.000574767
smoothSolver:  Solving for omega, Initial residual = 4.90035e-06, Final residual = 2.81039e-07, No Iterations 2
smoothSolver:  Solving for k, Initial residual = 0.00141984, Final residual = 9.73309e-05, No Iterations 2
ExecutionTime = 81.87 s  ClockTime = 82 s

forces forcesFish write:
    Sum of forces
        Total    : (0.0149274 2.61648e-07 -3.02744e-06)
        Pressure : (0.00342339 3.03799e-07 -3.0007e-06)
        Viscous  : (0.011504 -4.21502e-08 -2.67415e-08)
    Sum of moments
        Total    : (-7.56111e-10 4.87921e-07 6.4298e-08)
        Pressure : (-1.17494e-09 5.40081e-07 7.47605e-08)
        Viscous  : (4.18824e-10 -5.21599e-08 -1.04625e-08)
    writing force and moment files.

Time = 63

smoothSolver:  Solving for Ux, Initial residual = 6.79842e-05, Final residual = 5.66524e-06, No Iterations 2
smoothSolver:  Solving for Uy, Initial residual = 0.000742334, Final residual = 5.16622e-05, No Iterations 2
smoothSolver:  Solving for Uz, Initial residual = 0.000728725, Final residual = 5.09649e-05, No Iterations 2
GAMG:  Solving for p, Initial residual = 0.00336424, Final residual = 0.000146954, No Iterations 2
time step continuity errors : sum local = 3.03007e-06, global = -6.15534e-07, cumulative = 0.000574151
smoothSolver:  Solving for omega, Initial residual = 4.80426e-06, Final residual = 2.74559e-07, No Iterations 2
smoothSolver:  Solving for k, Initial residual = 0.00130576, Final residual = 9.01046e-05, No Iterations 2
ExecutionTime = 83.1 s  ClockTime = 83 s

forces forcesFish write:
    Sum of forces
        Total    : (0.0148333 -7.71437e-08 -3.02492e-06)
        Pressure : (0.00341597 -3.57048e-08 -2.99449e-06)
        Viscous  : (0.0114174 -4.14389e-08 -3.04234e-08)
    Sum of moments
        Total    : (-7.53647e-10 5.18933e-07 -9.9389e-09)
        Pressure : (-1.17931e-09 5.70324e-07 4.40976e-11)
[...]
smoothSolver:  Solving for Uy, Initial residual = 1.62005e-05, Final residual = 1.18935e-06, No Iterations 2
smoothSolver:  Solving for Uz, Initial residual = 1.62241e-05, Final residual = 1.19021e-06, No Iterations 2
GAMG:  Solving for p, Initial residual = 4.69575e-05, Final residual = 2.59412e-06, No Iterations 2
time step continuity errors : sum local = 5.30993e-08, global = 8.42603e-10, cumulative = 0.000575868
smoothSolver:  Solving for omega, Initial residual = 2.58116e-08, Final residual = 4.65649e-09, No Iterations 1
smoothSolver:  Solving for k, Initial residual = 1.90792e-07, Final residual = 9.3904e-09, No Iterations 2
ExecutionTime = 337.63 s  ClockTime = 338 s

forces forcesFish write:
    Sum of forces
        Total    : (0.0116386 -1.82581e-06 -4.51415e-06)
        Pressure : (0.00326894 -1.79278e-06 -4.59146e-06)
        Viscous  : (0.00836962 -3.30354e-08 7.73044e-08)
    Sum of moments
        Total    : (-6.34104e-10 1.30503e-06 -5.041e-07)
        Pressure : (-1.33046e-09 1.41281e-06 -5.04701e-07)
        Viscous  : (6.96361e-10 -1.07786e-07 6.00707e-10)
    writing force and moment files.

Time = 264

smoothSolver:  Solving for Ux, Initial residual = 6.08739e-07, Final residual = 3.40114e-08, No Iterations 2
smoothSolver:  Solving for Uy, Initial residual = 1.56752e-05, Final residual = 1.15054e-06, No Iterations 2
smoothSolver:  Solving for Uz, Initial residual = 1.56977e-05, Final residual = 1.1513e-06, No Iterations 2
GAMG:  Solving for p, Initial residual = 4.56023e-05, Final residual = 2.51389e-06, No Iterations 2
time step continuity errors : sum local = 5.14564e-08, global = 8.52727e-10, cumulative = 0.000575868
smoothSolver:  Solving for omega, Initial residual = 2.4979e-08, Final residual = 4.50241e-09, No Iterations 1
smoothSolver:  Solving for k, Initial residual = 1.8216e-07, Final residual = 8.93917e-09, No Iterations 2
ExecutionTime = 338.83 s  ClockTime = 339 s

forces forcesFish write:
    Sum of forces
        Total    : (0.0116384 -1.83137e-06 -4.5249e-06)
        Pressure : (0.00326896 -1.79851e-06 -4.60264e-06)
        Viscous  : (0.00836941 -3.2862e-08 7.77402e-08)
    Sum of moments
        Total    : (-6.34107e-10 1.30902e-06 -5.06161e-07)
        Pressure : (-1.33049e-09 1.417e-06 -5.0684e-07)
        Viscous  : (6.96383e-10 -1.07976e-07 6.78818e-10)
    writing force and moment files.

Time = 265

smoothSolver:  Solving for Ux, Initial residual = 5.87273e-07, Final residual = 3.27708e-08, No Iterations 2
smoothSolver:  Solving for Uy, Initial residual = 1.51651e-05, Final residual = 1.11284e-06, No Iterations 2
smoothSolver:  Solving for Uz, Initial residual = 1.51863e-05, Final residual = 1.11349e-06, No Iterations 2
GAMG:  Solving for p, Initial residual = 4.42789e-05, Final residual = 2.43564e-06, No Iterations 2
time step continuity errors : sum local = 4.98539e-08, global = 8.67625e-10, cumulative = 0.000575869
smoothSolver:  Solving for omega, Initial residual = 2.41657e-08, Final residual = 4.35243e-09, No Iterations 1
smoothSolver:  Solving for k, Initial residual = 1.73887e-07, Final residual = 8.50843e-09, No Iterations 2
ExecutionTime = 340.06 s  ClockTime = 340 s

forces forcesFish write:
    Sum of forces
        Total    : (0.0116382 -1.83687e-06 -4.53558e-06)
        Pressure : (0.00326899 -1.80418e-06 -4.61375e-06)
        Viscous  : (0.00836922 -3.26897e-08 7.81715e-08)
    Sum of moments
        Total    : (-6.34111e-10 1.31299e-06 -5.08202e-07)
        Pressure : (-1.33051e-09 1.42116e-06 -5.08959e-07)
        Viscous  : (6.96404e-10 -1.08164e-07 7.56396e-10)
    writing force and moment files.

Time = 266

smoothSolver:  Solving for Ux, Initial residual = 5.66496e-07, Final residual = 3.15726e-08, No Iterations 2
smoothSolver:  Solving for Uy, Initial residual = 1.46697e-05, Final residual = 1.07623e-06, No Iterations 2
smoothSolver:  Solving for Uz, Initial residual = 1.46898e-05, Final residual = 1.07678e-06, No Iterations 2
GAMG:  Solving for p, Initial residual = 4.29873e-05, Final residual = 2.3593e-06, No Iterations 2
time step continuity errors : sum local = 4.82906e-08, global = 8.88037e-10, cumulative = 0.00057587
smoothSolver:  Solving for omega, Initial residual = 2.33745e-08, Final residual = 4.20654e-09, No Iterations 1
smoothSolver:  Solving for k, Initial residual = 1.65968e-07, Final residual = 8.09771e-09, No Iterations 2
ExecutionTime = 341.36 s  ClockTime = 342 s

forces forcesFish write:
    Sum of forces
        Total    : (0.011638 -1.84232e-06 -4.54621e-06)
        Pressure : (0.00326902 -1.8098e-06 -4.62481e-06)
        Viscous  : (0.00836903 -3.25185e-08 7.85973e-08)
    Sum of moments
        Total    : (-6.34117e-10 1.31694e-06 -5.10224e-07)
        Pressure : (-1.33054e-09 1.42529e-06 -5.11057e-07)
        Viscous  : (6.96423e-10 -1.08349e-07 8.33391e-10)
    writing force and moment files.

Time = 267

smoothSolver:  Solving for Ux, Initial residual = 5.46388e-07, Final residual = 3.04155e-08, No Iterations 2
smoothSolver:  Solving for Uy, Initial residual = 1.41887e-05, Final residual = 1.04069e-06, No Iterations 2
smoothSolver:  Solving for Uz, Initial residual = 1.42078e-05, Final residual = 1.04114e-06, No Iterations 2
GAMG:  Solving for p, Initial residual = 4.17267e-05, Final residual = 2.28482e-06, No Iterations 2
time step continuity errors : sum local = 4.67655e-08, global = 9.13927e-10, cumulative = 0.000575871
smoothSolver:  Solving for omega, Initial residual = 2.26056e-08, Final residual = 4.0646e-09, No Iterations 1
smoothSolver:  Solving for k, Initial residual = 1.58392e-07, Final residual = 7.70628e-09, No Iterations 2
ExecutionTime = 342.62 s  ClockTime = 343 s

forces forcesFish write:
    Sum of forces
        Total    : (0.0116379 -1.84772e-06 -4.55678e-06)
        Pressure : (0.00326904 -1.81537e-06 -4.63579e-06)
        Viscous  : (0.00836885 -3.23483e-08 7.90174e-08)
    Sum of moments
        Total    : (-6.34124e-10 1.32087e-06 -5.12226e-07)
        Pressure : (-1.33057e-09 1.4294e-06 -5.13136e-07)
        Viscous  : (6.96442e-10 -1.08532e-07 9.09876e-10)
    writing force and moment files.

Time = 268

smoothSolver:  Solving for Ux, Initial residual = 5.26928e-07, Final residual = 2.92982e-08, No Iterations 2
smoothSolver:  Solving for Uy, Initial residual = 1.37217e-05, Final residual = 1.00619e-06, No Iterations 2
smoothSolver:  Solving for Uz, Initial residual = 1.374e-05, Final residual = 1.00654e-06, No Iterations 2
GAMG:  Solving for p, Initial residual = 4.04964e-05, Final residual = 2.21218e-06, No Iterations 2
time step continuity errors : sum local = 4.52781e-08, global = 9.44602e-10, cumulative = 0.000575872
smoothSolver:  Solving for omega, Initial residual = 2.18589e-08, Final residual = 3.92652e-09, No Iterations 1
smoothSolver:  Solving for k, Initial residual = 1.51156e-07, Final residual = 7.33313e-09, No Iterations 2
ExecutionTime = 343.89 s  ClockTime = 344 s

forces forcesFish write:
    Sum of forces
        Total    : (0.0116377 -1.85306e-06 -4.56729e-06)
        Pressure : (0.00326906 -1.82088e-06 -4.64672e-06)
        Viscous  : (0.00836867 -3.21799e-08 7.94326e-08)
    Sum of moments
        Total    : (-6.34131e-10 1.32478e-06 -5.14209e-07)
        Pressure : (-1.33059e-09 1.43349e-06 -5.15194e-07)
        Viscous  : (6.96459e-10 -1.08713e-07 9.85546e-10)
    writing force and moment files.

Time = 269

smoothSolver:  Solving for Ux, Initial residual = 5.08097e-07, Final residual = 2.82194e-08, No Iterations 2
smoothSolver:  Solving for Uy, Initial residual = 1.32683e-05, Final residual = 9.72715e-07, No Iterations 2
smoothSolver:  Solving for Uz, Initial residual = 1.32859e-05, Final residual = 9.72971e-07, No Iterations 2
GAMG:  Solving for p, Initial residual = 3.92975e-05, Final residual = 2.14137e-06, No Iterations 2
time step continuity errors : sum local = 4.38283e-08, global = 9.78845e-10, cumulative = 0.000575873
smoothSolver:  Solving for omega, Initial residual = 2.11341e-08, Final residual = 3.79258e-09, No Iterations 1
smoothSolver:  Solving for k, Initial residual = 1.44252e-07, Final residual = 6.97772e-09, No Iterations 2
ExecutionTime = 345.1 s  ClockTime = 345 s

forces forcesFish write:
    Sum of forces
        Total    : (0.0116376 -1.85835e-06 -4.57775e-06)
        Pressure : (0.00326909 -1.82634e-06 -4.65759e-06)
        Viscous  : (0.0083685 -3.20131e-08 7.98435e-08)
    Sum of moments
        Total    : (-6.34141e-10 1.32867e-06 -5.16172e-07)
        Pressure : (-1.33062e-09 1.43756e-06 -5.17233e-07)
        Viscous  : (6.96476e-10 -1.08892e-07 1.0605e-09)
    writing force and moment files.

Time = 270

smoothSolver:  Solving for Ux, Initial residual = 4.89875e-07, Final residual = 2.71779e-08, No Iterations 2
smoothSolver:  Solving for Uy, Initial residual = 1.28282e-05, Final residual = 9.40225e-07, No Iterations 2
smoothSolver:  Solving for Uz, Initial residual = 1.28451e-05, Final residual = 9.40404e-07, No Iterations 2
GAMG:  Solving for p, Initial residual = 3.81279e-05, Final residual = 2.0724e-06, No Iterations 2
time step continuity errors : sum local = 4.24161e-08, global = 1.01507e-09, cumulative = 0.000575874
smoothSolver:  Solving for omega, Initial residual = 2.04301e-08, Final residual = 3.66253e-09, No Iterations 1
smoothSolver:  Solving for k, Initial residual = 1.37664e-07, Final residual = 6.63978e-09, No Iterations 2
ExecutionTime = 346.34 s  ClockTime = 347 s

forces forcesFish write:
    Sum of forces
        Total    : (0.0116374 -1.86359e-06 -4.58815e-06)
        Pressure : (0.00326911 -1.83175e-06 -4.6684e-06)
        Viscous  : (0.00836834 -3.18466e-08 8.02482e-08)
    Sum of moments
        Total    : (-6.34151e-10 1.33254e-06 -5.18117e-07)
        Pressure : (-1.33064e-09 1.4416e-06 -5.19252e-07)
        Viscous  : (6.9649e-10 -1.09069e-07 1.1352e-09)
    writing force and moment files.

Time = 271

smoothSolver:  Solving for Ux, Initial residual = 4.72247e-07, Final residual = 2.61725e-08, No Iterations 2
smoothSolver:  Solving for Uy, Initial residual = 1.24011e-05, Final residual = 9.08703e-07, No Iterations 2
smoothSolver:  Solving for Uz, Initial residual = 1.24174e-05, Final residual = 9.0881e-07, No Iterations 2
GAMG:  Solving for p, Initial residual = 3.69871e-05, Final residual = 2.00528e-06, No Iterations 2
time step continuity errors : sum local = 4.10419e-08, global = 1.05147e-09, cumulative = 0.000575875
smoothSolver:  Solving for omega, Initial residual = 1.97481e-08, Final residual = 3.53628e-09, No Iterations 1
smoothSolver:  Solving for k, Initial residual = 1.31382e-07, Final residual = 6.31813e-09, No Iterations 2
ExecutionTime = 347.56 s  ClockTime = 348 s

forces forcesFish write:
    Sum of forces
        Total    : (0.0116373 -1.86879e-06 -4.5985e-06)
        Pressure : (0.00326913 -1.83711e-06 -4.67914e-06)
        Viscous  : (0.00836818 -3.16803e-08 8.06467e-08)
    Sum of moments
        Total    : (-6.34164e-10 1.33638e-06 -5.20043e-07)
        Pressure : (-1.33067e-09 1.44563e-06 -5.21253e-07)
        Viscous  : (6.96504e-10 -1.09243e-07 1.20972e-09)
    writing force and moment files.

Time = 272

smoothSolver:  Solving for Ux, Initial residual = 4.55193e-07, Final residual = 2.52019e-08, No Iterations 2
smoothSolver:  Solving for Uy, Initial residual = 1.19867e-05, Final residual = 8.78131e-07, No Iterations 2
smoothSolver:  Solving for Uz, Initial residual = 1.20024e-05, Final residual = 8.78169e-07, No Iterations 2
GAMG:  Solving for p, Initial residual = 3.58757e-05, Final residual = 1.94003e-06, No Iterations 2
time step continuity errors : sum local = 3.97061e-08, global = 1.0862e-09, cumulative = 0.000575876
smoothSolver:  Solving for omega, Initial residual = 1.90879e-08, Final residual = 3.41383e-09, No Iterations 1
smoothSolver:  Solving for k, Initial residual = 1.25394e-07, Final residual = 6.01208e-09, No Iterations 2
ExecutionTime = 348.83 s  ClockTime = 349 s

forces forcesFish write:
    Sum of forces
        Total    : (0.0116372 -1.87393e-06 -4.60879e-06)
        Pressure : (0.00326915 -1.84241e-06 -4.68983e-06)
        Viscous  : (0.00836802 -3.15142e-08 8.10404e-08)
    Sum of moments
        Total    : (-6.34178e-10 1.34021e-06 -5.21951e-07)
        Pressure : (-1.33069e-09 1.44962e-06 -5.23235e-07)
        Viscous  : (6.96516e-10 -1.09415e-07 1.28409e-09)
    writing force and moment files.

Time = 273

smoothSolver:  Solving for Ux, Initial residual = 4.38697e-07, Final residual = 2.42651e-08, No Iterations 2
smoothSolver:  Solving for Uy, Initial residual = 1.15846e-05, Final residual = 8.48489e-07, No Iterations 2
smoothSolver:  Solving for Uz, Initial residual = 1.15998e-05, Final residual = 8.48453e-07, No Iterations 2
GAMG:  Solving for p, Initial residual = 3.47964e-05, Final residual = 1.87667e-06, No Iterations 2
time step continuity errors : sum local = 3.84089e-08, global = 1.1175e-09, cumulative = 0.000575877
smoothSolver:  Solving for omega, Initial residual = 1.84439e-08, Final residual = 3.2951e-09, No Iterations 1
smoothSolver:  Solving for k, Initial residual = 1.1969e-07, Final residual = 5.72095e-09, No Iterations 2
ExecutionTime = 350.11 s  ClockTime = 350 s

forces forcesFish write:
    Sum of forces
        Total    : (0.011637 -1.87902e-06 -4.61903e-06)
        Pressure : (0.00326917 -1.84767e-06 -4.70046e-06)
        Viscous  : (0.00836787 -3.13481e-08 8.14301e-08)
    Sum of moments
        Total    : (-6.34193e-10 1.34402e-06 -5.23842e-07)
        Pressure : (-1.33072e-09 1.4536e-06 -5.252e-07)
        Viscous  : (6.96526e-10 -1.09586e-07 1.35833e-09)
    writing force and moment files.

Time = 274

smoothSolver:  Solving for Ux, Initial residual = 4.22744e-07, Final residual = 2.33611e-08, No Iterations 2
smoothSolver:  Solving for Uy, Initial residual = 1.11946e-05, Final residual = 8.19753e-07, No Iterations 2
smoothSolver:  Solving for Uz, Initial residual = 1.12093e-05, Final residual = 8.19642e-07, No Iterations 2
GAMG:  Solving for p, Initial residual = 3.37471e-05, Final residual = 1.81521e-06, No Iterations 2
time step continuity errors : sum local = 3.71506e-08, global = 1.14385e-09, cumulative = 0.000575878
smoothSolver:  Solving for omega, Initial residual = 1.78185e-08, Final residual = 3.17995e-09, No Iterations 1
smoothSolver:  Solving for k, Initial residual = 1.14256e-07, Final residual = 5.44411e-09, No Iterations 2
ExecutionTime = 351.37 s  ClockTime = 352 s

forces forcesFish write:
    Sum of forces
        Total    : (0.0116369 -1.88407e-06 -4.62922e-06)
        Pressure : (0.00326919 -1.85289e-06 -4.71104e-06)
        Viscous  : (0.00836773 -3.11821e-08 8.18164e-08)
    Sum of moments
        Total    : (-6.3421e-10 1.3478e-06 -5.25715e-07)
        Pressure : (-1.33074e-09 1.45756e-06 -5.27148e-07)
        Viscous  : (6.96535e-10 -1.09755e-07 1.43245e-09)
    writing force and moment files.

Time = 275

smoothSolver:  Solving for Ux, Initial residual = 4.0732e-07, Final residual = 2.24887e-08, No Iterations 2
smoothSolver:  Solving for Uy, Initial residual = 1.08163e-05, Final residual = 7.91895e-07, No Iterations 2
smoothSolver:  Solving for Uz, Initial residual = 1.08306e-05, Final residual = 7.91711e-07, No Iterations 2
GAMG:  Solving for p, Initial residual = 3.27252e-05, Final residual = 1.75562e-06, No Iterations 2
time step continuity errors : sum local = 3.59307e-08, global = 1.16403e-09, cumulative = 0.00057588
smoothSolver:  Solving for omega, Initial residual = 1.72111e-08, Final residual = 3.06834e-09, No Iterations 1
smoothSolver:  Solving for k, Initial residual = 1.09079e-07, Final residual = 5.18111e-09, No Iterations 2
ExecutionTime = 352.6 s  ClockTime = 353 s

forces forcesFish write:
    Sum of forces
        Total    : (0.0116368 -1.88907e-06 -4.63935e-06)
        Pressure : (0.00326921 -1.85806e-06 -4.72155e-06)
        Viscous  : (0.00836759 -3.10168e-08 8.21997e-08)
    Sum of moments
        Total    : (-6.34227e-10 1.35157e-06 -5.27572e-07)
        Pressure : (-1.33077e-09 1.46149e-06 -5.29079e-07)
        Viscous  : (6.96543e-10 -1.09923e-07 1.50622e-09)
    writing force and moment files.

Time = 276

smoothSolver:  Solving for Ux, Initial residual = 3.92412e-07, Final residual = 2.16471e-08, No Iterations 2
smoothSolver:  Solving for Uy, Initial residual = 1.04496e-05, Final residual = 7.64897e-07, No Iterations 2
smoothSolver:  Solving for Uz, Initial residual = 1.04636e-05, Final residual = 7.64643e-07, No Iterations 2
GAMG:  Solving for p, Initial residual = 3.17305e-05, Final residual = 1.69789e-06, No Iterations 2
time step continuity errors : sum local = 3.47488e-08, global = 1.17723e-09, cumulative = 0.000575881
smoothSolver:  Solving for omega, Initial residual = 1.6624e-08, Final residual = 2.9603e-09, No Iterations 1
smoothSolver:  Solving for k, Initial residual = 1.04149e-07, Final residual = 4.93149e-09, No Iterations 2
ExecutionTime = 353.82 s  ClockTime = 354 s

forces forcesFish write:
    Sum of forces
        Total    : (0.0116367 -1.89404e-06 -4.64943e-06)
        Pressure : (0.00326923 -1.86318e-06 -4.73201e-06)
        Viscous  : (0.00836745 -3.08525e-08 8.25804e-08)
    Sum of moments
        Total    : (-6.34245e-10 1.35531e-06 -5.29414e-07)
        Pressure : (-1.3308e-09 1.4654e-06 -5.30993e-07)
        Viscous  : (6.9655e-10 -1.10089e-07 1.57948e-09)
    writing force and moment files.

Time = 277

smoothSolver:  Solving for Ux, Initial residual = 3.78004e-07, Final residual = 2.08353e-08, No Iterations 2
smoothSolver:  Solving for Uy, Initial residual = 1.00942e-05, Final residual = 7.38744e-07, No Iterations 2
smoothSolver:  Solving for Uz, Initial residual = 1.01078e-05, Final residual = 7.38416e-07, No Iterations 2
GAMG:  Solving for p, Initial residual = 3.07624e-05, Final residual = 1.64197e-06, No Iterations 2
time step continuity errors : sum local = 3.36041e-08, global = 1.18306e-09, cumulative = 0.000575882
smoothSolver:  Solving for omega, Initial residual = 1.60539e-08, Final residual = 2.85564e-09, No Iterations 1
smoothSolver:  Solving for k, Initial residual = 9.9456e-08, Final residual = 4.69434e-09, No Iterations 2
ExecutionTime = 355.05 s  ClockTime = 355 s

forces forcesFish write:
    Sum of forces
        Total    : (0.0116366 -1.89895e-06 -4.65945e-06)
        Pressure : (0.00326925 -1.86827e-06 -4.74241e-06)
        Viscous  : (0.00836732 -3.06883e-08 8.29587e-08)
    Sum of moments
        Total    : (-6.34265e-10 1.35904e-06 -5.3124e-07)
        Pressure : (-1.33082e-09 1.46929e-06 -5.32892e-07)
        Viscous  : (6.96556e-10 -1.10255e-07 1.65261e-09)
    writing force and moment files.

Time = 278

smoothSolver:  Solving for Ux, Initial residual = 3.64086e-07, Final residual = 2.00524e-08, No Iterations 2
smoothSolver:  Solving for Uy, Initial residual = 9.74985e-06, Final residual = 7.13406e-07, No Iterations 2
smoothSolver:  Solving for Uz, Initial residual = 9.76312e-06, Final residual = 7.13019e-07, No Iterations 2
GAMG:  Solving for p, Initial residual = 2.98194e-05, Final residual = 1.58782e-06, No Iterations 2
time step continuity errors : sum local = 3.24955e-08, global = 1.18151e-09, cumulative = 0.000575883
smoothSolver:  Solving for omega, Initial residual = 1.55017e-08, Final residual = 2.75434e-09, No Iterations 1
smoothSolver:  Solving for k, Initial residual = 9.49892e-08, Final residual = 4.46946e-09, No Iterations 2
ExecutionTime = 356.31 s  ClockTime = 357 s


SIMPLE solution converged in 278 iterations

forces forcesFish write:
    Sum of forces
        Total    : (0.0116365 -1.90383e-06 -4.66942e-06)
        Pressure : (0.00326927 -1.87331e-06 -4.75276e-06)
        Viscous  : (0.0083672 -3.05246e-08 8.3334e-08)
    Sum of moments
        Total    : (-6.34284e-10 1.36274e-06 -5.33051e-07)
        Pressure : (-1.33085e-09 1.47316e-06 -5.34776e-07)
        Viscous  : (6.96561e-10 -1.10419e-07 1.72546e-09)
    writing force and moment files.

End

