/*---------------------------------------------------------------------------*\
| =========                 |                                                 |
| \\      /  F ield         | OpenFOAM: The Open Source CFD Toolbox           |
|  \\    /   O peration     | Version:  2512                                  |
|   \\  /    A nd           | Website:  www.openfoam.com                      |
|    \\/     M anipulation  |                                                 |
\*---------------------------------------------------------------------------*/
Build  : _bd2b6720-20260127 OPENFOAM=2512 version=2512
Arch   : "LSB;label=32;scalar=64"
Exec   : simpleFoam
Date   : Mar 28 2026
Time   : 17:31:21
Host   : mathias-laptop
PID    : 9580
I/O    : uncollated
Case   : /home/mat/OpenFOAM/mat-run/speed_sweep_runs/U_0p2
nProcs : 1
trapFpe: Floating point exception trapping enabled (FOAM_SIGFPE).
memory pool : not available
fileModificationChecking : Monitoring run-time modified files using timeStampMaster (fileModificationSkew 5, maxFileModificationPolls 20)
allowSystemOperations : Allowing user-supplied system call operations

// * * * * * * * * * * * * * * * * * * * * * * * * * * * * * * * * * * * * * //
Create time

Create mesh for time = 0


SIMPLE: convergence criteria
    field p	 tolerance 0.0001
    field U	 tolerance 1e-05
    field "(k|omega)"	 tolerance 1e-05

Reading field p

Reading field U

Reading/calculating face flux field phi

Selecting incompressible transport model Newtonian
Selecting turbulence model type RAS
Selecting RAS turbulence model kOmegaSST
Selecting patchDistMethod meshWave
RAS
{
    RASModel        kOmegaSST;
    turbulence      on;
    printCoeffs     on;
    alphaK1         0.85;
    alphaK2         1;
    alphaOmega1     0.5;
    alphaOmega2     0.856;
    gamma1          0.555556;
    gamma2          0.44;
    beta1           0.075;
    beta2           0.0828;
    betaStar        0.09;
    a1              0.31;
    b1              1;
    c1              10;
    F3              false;
    decayControl    false;
    kInf            0;
    omegaInf        0;
}

No MRF models present

No finite volume options present

Starting time loop

forces forcesFish:
    rho: rhoInf
    Freestream density (rhoInf) set to 1000
    Not including porosity effects

Time = 1

smoothSolver:  Solving for Ux, Initial residual = 1, Final residual = 0.0866595, No Iterations 1
smoothSolver:  Solving for Uy, Initial residual = 1, Final residual = 0.0975632, No Iterations 1
smoothSolver:  Solving for Uz, Initial residual = 1, Final residual = 0.0234609, No Iterations 2
GAMG:  Solving for p, Initial residual = 1, Final residual = 0.0649143, No Iterations 5
time step continuity errors : sum local = 2.6047e-06, global = -2.76476e-07, cumulative = -2.76476e-07
smoothSolver:  Solving for omega, Initial residual = 0.0207184, Final residual = 0.00122201, No Iterations 1
bounding omega, min: -4.98959 max: 10124.2 average: 98.8404
smoothSolver:  Solving for k, Initial residual = 1, Final residual = 0.0733966, No Iterations 1
ExecutionTime = 1.64 s  ClockTime = 2 s

forces forcesFish write:
    Sum of forces
        Total    : (0.125078 0.00322572 -0.00114542)
        Pressure : (0.0928169 0.00321198 -0.00114464)
        Viscous  : (0.0322609 1.3736e-05 -7.82793e-07)
    Sum of moments
        Total    : (-5.47363e-07 -9.91313e-06 0.00213146)
        Pressure : (-5.3123e-07 -1.06356e-05 0.00211284)
        Viscous  : (-1.6133e-08 7.22439e-07 1.86124e-05)
    writing force and moment files.

Time = 2

smoothSolver:  Solving for Ux, Initial residual = 0.0333441, Final residual = 0.00225088, No Iterations 2
smoothSolver:  Solving for Uy, Initial residual = 0.347601, Final residual = 0.033882, No Iterations 2
smoothSolver:  Solving for Uz, Initial residual = 0.324961, Final residual = 0.0322712, No Iterations 2
GAMG:  Solving for p, Initial residual = 0.0640442, Final residual = 0.00546178, No Iterations 3
time step continuity errors : sum local = 4.3436e-06, global = -2.71341e-07, cumulative = -5.47817e-07
smoothSolver:  Solving for omega, Initial residual = 0.00957381, Final residual = 0.000698617, No Iterations 1
smoothSolver:  Solving for k, Initial residual = 0.470731, Final residual = 0.0411406, No Iterations 1
ExecutionTime = 2.19 s  ClockTime = 2 s

forces forcesFish write:
    Sum of forces
        Total    : (0.142402 0.00350542 -0.00129806)
        Pressure : (0.113212 0.00350125 -0.00130699)
        Viscous  : (0.0291901 4.17695e-06 8.92428e-06)
    Sum of moments
        Total    : (-1.14253e-07 -1.25096e-05 0.00256741)
        Pressure : (-1.56936e-07 -1.28329e-05 0.00255148)
        Viscous  : (4.26825e-08 3.2328e-07 1.59266e-05)
    writing force and moment files.

Time = 3

smoothSolver:  Solving for Ux, Initial residual = 0.00441439, Final residual = 0.000315928, No Iterations 2
smoothSolver:  Solving for Uy, Initial residual = 0.194498, Final residual = 0.0186213, No Iterations 2
smoothSolver:  Solving for Uz, Initial residual = 0.179096, Final residual = 0.0174788, No Iterations 2
GAMG:  Solving for p, Initial residual = 0.145353, Final residual = 0.0119152, No Iterations 2
time step continuity errors : sum local = 8.08474e-06, global = -3.0557e-07, cumulative = -8.53387e-07
smoothSolver:  Solving for omega, Initial residual = 0.00581245, Final residual = 0.000492591, No Iterations 1
smoothSolver:  Solving for k, Initial residual = 0.2893, Final residual = 0.0282146, No Iterations 1
ExecutionTime = 2.7 s  ClockTime = 3 s

forces forcesFish write:
    Sum of forces
        Total    : (0.130297 0.00296597 -0.00124067)
        Pressure : (0.103129 0.00296797 -0.00125564)
        Viscous  : (0.0271681 -1.99967e-06 1.49745e-05)
    Sum of moments
        Total    : (3.47793e-07 3.41248e-06 0.0023264)
        Pressure : (2.67602e-07 3.36571e-06 0.00231246)
        Viscous  : (8.01908e-08 4.67762e-08 1.39337e-05)
    writing force and moment files.

Time = 4

smoothSolver:  Solving for Ux, Initial residual = 0.00225267, Final residual = 0.000160583, No Iterations 2
smoothSolver:  Solving for Uy, Initial residual = 0.100867, Final residual = 0.00952627, No Iterations 2
smoothSolver:  Solving for Uz, Initial residual = 0.110558, Final residual = 0.0106491, No Iterations 2
GAMG:  Solving for p, Initial residual = 0.326941, Final residual = 0.0132733, No Iterations 3
time step continuity errors : sum local = 5.42325e-06, global = -2.79275e-07, cumulative = -1.13266e-06
smoothSolver:  Solving for omega, Initial residual = 0.00387908, Final residual = 0.000361977, No Iterations 1
smoothSolver:  Solving for k, Initial residual = 0.195787, Final residual = 0.00220146, No Iterations 2
ExecutionTime = 3.32 s  ClockTime = 3 s

forces forcesFish write:
    Sum of forces
        Total    : (0.0999066 0.00203139 -0.00085459)
        Pressure : (0.074257 0.00204028 -0.000871882)
        Viscous  : (0.0256496 -8.89517e-06 1.72925e-05)
    Sum of moments
        Total    : (1.10987e-06 -1.44709e-05 0.00167984)
        Pressure : (1.00677e-06 -1.43062e-05 0.0016684)
        Viscous  : (1.03103e-07 -1.64628e-07 1.14375e-05)
    writing force and moment files.

Time = 5

smoothSolver:  Solving for Ux, Initial residual = 0.00127737, Final residual = 8.80918e-05, No Iterations 2
smoothSolver:  Solving for Uy, Initial residual = 0.0535907, Final residual = 0.00495136, No Iterations 2
smoothSolver:  Solving for Uz, Initial residual = 0.064391, Final residual = 0.00607531, No Iterations 2
GAMG:  Solving for p, Initial residual = 0.297589, Final residual = 0.0142695, No Iterations 3
time step continuity errors : sum local = 6.55069e-06, global = -1.82645e-07, cumulative = -1.31531e-06
smoothSolver:  Solving for omega, Initial residual = 0.00276776, Final residual = 0.000272725, No Iterations 1
smoothSolver:  Solving for k, Initial residual = 0.139815, Final residual = 0.0017127, No Iterations 2
ExecutionTime = 3.88 s  ClockTime = 4 s

forces forcesFish write:
    Sum of forces
        Total    : (0.0649943 0.00107739 -0.000427672)
        Pressure : (0.0404666 0.00109322 -0.000443829)
        Viscous  : (0.0245278 -1.58355e-05 1.61567e-05)
    Sum of moments
        Total    : (1.48533e-06 -2.79309e-05 0.000940195)
        Pressure : (1.37906e-06 -2.76763e-05 0.000931368)
        Viscous  : (1.0627e-07 -2.5457e-07 8.82787e-06)
    writing force and moment files.

Time = 6

smoothSolver:  Solving for Ux, Initial residual = 0.000795573, Final residual = 4.8291e-05, No Iterations 2
smoothSolver:  Solving for Uy, Initial residual = 0.0268146, Final residual = 0.00220959, No Iterations 2
smoothSolver:  Solving for Uz, Initial residual = 0.0311741, Final residual = 0.00262033, No Iterations 2
GAMG:  Solving for p, Initial residual = 0.136841, Final residual = 0.00733436, No Iterations 3
time step continuity errors : sum local = 6.16847e-06, global = -3.15484e-08, cumulative = -1.34685e-06
smoothSolver:  Solving for omega, Initial residual = 0.00206215, Final residual = 2.25805e-05, No Iterations 2
smoothSolver:  Solving for k, Initial residual = 0.104192, Final residual = 0.00136809, No Iterations 2
ExecutionTime = 4.41 s  ClockTime = 4 s

forces forcesFish write:
    Sum of forces
        Total    : (0.0343129 0.000325394 -6.89832e-05)
        Pressure : (0.0106542 0.00034715 -8.18305e-05)
        Viscous  : (0.0236586 -2.17552e-05 1.28474e-05)
    Sum of moments
        Total    : (1.36884e-06 -2.86507e-05 0.000299927)
        Pressure : (1.2712e-06 -2.84601e-05 0.000293529)
        Viscous  : (9.76383e-08 -1.9059e-07 6.39722e-06)
    writing force and moment files.

Time = 7

smoothSolver:  Solving for Ux, Initial residual = 0.000600546, Final residual = 2.93323e-05, No Iterations 2
smoothSolver:  Solving for Uy, Initial residual = 0.0169144, Final residual = 0.000706672, No Iterations 2
smoothSolver:  Solving for Uz, Initial residual = 0.0181378, Final residual = 0.000757313, No Iterations 2
GAMG:  Solving for p, Initial residual = 0.0745699, Final residual = 0.00406787, No Iterations 3
time step continuity errors : sum local = 4.64209e-06, global = 1.50645e-07, cumulative = -1.19621e-06
smoothSolver:  Solving for omega, Initial residual = 0.00153483, Final residual = 1.81873e-05, No Iterations 2
smoothSolver:  Solving for k, Initial residual = 0.0811025, Final residual = 0.00114336, No Iterations 2
ExecutionTime = 4.97 s  ClockTime = 5 s

forces forcesFish write:
    Sum of forces
        Total    : (0.0130775 -0.000114794 0.000160564)
        Pressure : (-0.00988899 -8.93529e-05 0.00015177)
        Viscous  : (0.0229665 -2.54406e-05 8.7936e-06)
    Sum of moments
        Total    : (8.71801e-07 -1.55809e-05 -0.000131154)
        Pressure : (7.93555e-07 -1.55361e-05 -0.000135547)
        Viscous  : (7.82463e-08 -4.48472e-08 4.3928e-06)
    writing force and moment files.

Time = 8

smoothSolver:  Solving for Ux, Initial residual = 0.000553644, Final residual = 2.82762e-05, No Iterations 2
smoothSolver:  Solving for Uy, Initial residual = 0.0261705, Final residual = 0.00193957, No Iterations 2
smoothSolver:  Solving for Uz, Initial residual = 0.0344284, Final residual = 0.00278315, No Iterations 2
GAMG:  Solving for p, Initial residual = 0.0488774, Final residual = 0.00203321, No Iterations 3
time step continuity errors : sum local = 2.73629e-06, global = 2.96245e-07, cumulative = -8.99966e-07
smoothSolver:  Solving for omega, Initial residual = 0.00118172, Final residual = 1.48693e-05, No Iterations 2
smoothSolver:  Solving for k, Initial residual = 0.0653726, Final residual = 0.000974739, No Iterations 2
ExecutionTime = 5.52 s  ClockTime = 5 s

forces forcesFish write:
    Sum of forces
        Total    : (0.00272866 -0.000268316 0.000248869)
        Pressure : (-0.0196744 -0.000241892 0.000243758)
        Viscous  : (0.022403 -2.64243e-05 5.11042e-06)
    Sum of moments
        Total    : (1.33784e-07 5.39375e-06 -0.00032831)
        Pressure : (7.72795e-08 5.27452e-06 -0.000331378)
        Viscous  : (5.65046e-08 1.19229e-07 3.06783e-06)
    writing force and moment files.

Time = 9

smoothSolver:  Solving for Ux, Initial residual = 0.000538672, Final residual = 2.95456e-05, No Iterations 2
smoothSolver:  Solving for Uy, Initial residual = 0.0368607, Final residual = 0.00302647, No Iterations 2
smoothSolver:  Solving for Uz, Initial residual = 0.0498303, Final residual = 0.00431399, No Iterations 2
GAMG:  Solving for p, Initial residual = 0.0475607, Final residual = 0.00315748, No Iterations 2
time step continuity errors : sum local = 4.51034e-06, global = 4.48057e-07, cumulative = -4.51909e-07
smoothSolver:  Solving for omega, Initial residual = 0.000933909, Final residual = 1.23178e-05, No Iterations 2
smoothSolver:  Solving for k, Initial residual = 0.0541007, Final residual = 0.000844046, No Iterations 2
ExecutionTime = 6.11 s  ClockTime = 6 s

forces forcesFish write:
    Sum of forces
        Total    : (0.00186343 -0.00022469 0.000198941)
        Pressure : (-0.0200657 -0.000199766 0.000196593)
        Viscous  : (0.0219291 -2.4924e-05 2.34868e-06)
    Sum of moments
        Total    : (-4.00357e-07 3.14978e-05 -0.000333908)
        Pressure : (-4.34829e-07 3.12251e-05 -0.000336363)
        Viscous  : (3.44716e-08 2.72639e-07 2.45567e-06)
    writing force and moment files.

Time = 10

smoothSolver:  Solving for Ux, Initial residual = 0.000494328, Final residual = 2.74594e-05, No Iterations 2
smoothSolver:  Solving for Uy, Initial residual = 0.0414165, Final residual = 0.00341521, No Iterations 2
smoothSolver:  Solving for Uz, Initial residual = 0.0558372, Final residual = 0.00483159, No Iterations 2
GAMG:  Solving for p, Initial residual = 0.0576854, Final residual = 0.00411206, No Iterations 2
time step continuity errors : sum local = 5.67191e-06, global = 5.91759e-07, cumulative = 1.39851e-07
smoothSolver:  Solving for omega, Initial residual = 0.00075309, Final residual = 1.03244e-05, No Iterations 2
smoothSolver:  Solving for k, Initial residual = 0.0457354, Final residual = 0.000740665, No Iterations 2
ExecutionTime = 6.62 s  ClockTime = 6 s

forces forcesFish write:
    Sum of forces
        Total    : (0.00652396 -6.64255e-05 0.000122135)
        Pressure : (-0.0149886 -4.4317e-05 0.00012136)
        Viscous  : (0.0215126 -2.21085e-05 7.75711e-07)
    Sum of moments
        Total    : (-1.07781e-06 4.93403e-05 -0.0002305)
        Pressure : (-1.0931e-06 4.89461e-05 -0.000232844)
        Viscous  : (1.52917e-08 3.94127e-07 2.34346e-06)
    writing force and moment files.

Time = 11

smoothSolver:  Solving for Ux, Initial residual = 0.000415326, Final residual = 2.24932e-05, No Iterations 2
smoothSolver:  Solving for Uy, Initial residual = 0.0385056, Final residual = 0.00308359, No Iterations 2
smoothSolver:  Solving for Uz, Initial residual = 0.0509336, Final residual = 0.00430413, No Iterations 2
GAMG:  Solving for p, Initial residual = 0.0668827, Final residual = 0.00563989, No Iterations 2
time step continuity errors : sum local = 6.8431e-06, global = 6.70307e-07, cumulative = 8.10157e-07
smoothSolver:  Solving for omega, Initial residual = 0.000617284, Final residual = 8.73627e-06, No Iterations 2
smoothSolver:  Solving for k, Initial residual = 0.0392811, Final residual = 0.000656361, No Iterations 2
ExecutionTime = 7.14 s  ClockTime = 7 s

forces forcesFish write:
    Sum of forces
        Total    : (0.0140777 0.000103984 4.2802e-05)
        Pressure : (-0.00705967 0.00012268 4.23572e-05)
        Viscous  : (0.0211374 -1.86955e-05 4.44805e-07)
    Sum of moments
        Total    : (-1.57852e-06 5.40742e-05 -7.92712e-05)
        Pressure : (-1.57922e-06 5.36187e-05 -8.18215e-05)
        Viscous  : (7.03314e-10 4.55458e-07 2.55031e-06)
    writing force and moment files.

Time = 12

smoothSolver:  Solving for Ux, Initial residual = 0.000332358, Final residual = 1.66259e-05, No Iterations 2
smoothSolver:  Solving for Uy, Initial residual = 0.0294432, Final residual = 0.00207864, No Iterations 2
smoothSolver:  Solving for Uz, Initial residual = 0.0364776, Final residual = 0.00279878, No Iterations 2
GAMG:  Solving for p, Initial residual = 0.0742477, Final residual = 0.00709949, No Iterations 2
time step continuity errors : sum local = 6.89557e-06, global = 6.81411e-07, cumulative = 1.49157e-06
smoothSolver:  Solving for omega, Initial residual = 0.00051281, Final residual = 7.44931e-06, No Iterations 2
smoothSolver:  Solving for k, Initial residual = 0.0342039, Final residual = 0.000586927, No Iterations 2
ExecutionTime = 7.64 s  ClockTime = 8 s

forces forcesFish write:
    Sum of forces
        Total    : (0.0219239 0.000221092 -1.91881e-05)
        Pressure : (0.0011231 0.000236495 -2.02906e-05)
        Viscous  : (0.0208008 -1.54028e-05 1.10247e-06)
    Sum of moments
        Total    : (-1.7478e-06 4.49062e-05 6.69646e-05)
        Pressure : (-1.73897e-06 4.44346e-05 6.40659e-05)
        Viscous  : (-8.82541e-09 4.71595e-07 2.89879e-06)
    writing force and moment files.

Time = 13

smoothSolver:  Solving for Ux, Initial residual = 0.000264789, Final residual = 1.22163e-05, No Iterations 2
smoothSolver:  Solving for Uy, Initial residual = 0.0227023, Final residual = 0.00106768, No Iterations 2
smoothSolver:  Solving for Uz, Initial residual = 0.0226371, Final residual = 0.00117665, No Iterations 2
GAMG:  Solving for p, Initial residual = 0.0828281, Final residual = 0.00818995, No Iterations 2
time step continuity errors : sum local = 5.84885e-06, global = 6.2478e-07, cumulative = 2.11635e-06
smoothSolver:  Solving for omega, Initial residual = 0.000430865, Final residual = 6.39255e-06, No Iterations 2
smoothSolver:  Solving for k, Initial residual = 0.0300854, Final residual = 0.000528173, No Iterations 2
ExecutionTime = 8.15 s  ClockTime = 8 s

forces forcesFish write:
    Sum of forces
        Total    : (0.0282164 0.000259329 -5.66477e-05)
        Pressure : (0.00772445 0.000272143 -5.89743e-05)
        Viscous  : (0.0204919 -1.28137e-05 2.32658e-06)
    Sum of moments
        Total    : (-1.57307e-06 2.55447e-05 0.000175153)
        Pressure : (-1.55955e-06 2.51047e-05 0.000171923)
        Viscous  : (-1.35176e-08 4.40024e-07 3.23043e-06)
    writing force and moment files.

Time = 14

smoothSolver:  Solving for Ux, Initial residual = 0.000230411, Final residual = 1.07026e-05, No Iterations 2
smoothSolver:  Solving for Uy, Initial residual = 0.0256057, Final residual = 0.00148267, No Iterations 2
smoothSolver:  Solving for Uz, Initial residual = 0.0230606, Final residual = 0.00136517, No Iterations 2
GAMG:  Solving for p, Initial residual = 0.0952932, Final residual = 0.00837894, No Iterations 2
time step continuity errors : sum local = 4.20297e-06, global = 5.13647e-07, cumulative = 2.62999e-06
smoothSolver:  Solving for omega, Initial residual = 0.00036546, Final residual = 5.51565e-06, No Iterations 2
smoothSolver:  Solving for k, Initial residual = 0.0267179, Final residual = 0.000478389, No Iterations 2
ExecutionTime = 8.71 s  ClockTime = 9 s

forces forcesFish write:
    Sum of forces
        Total    : (0.0320168 0.000227524 -7.04277e-05)
        Pressure : (0.0118101 0.000238847 -7.4142e-05)
        Viscous  : (0.0202067 -1.1323e-05 3.71423e-06)
    Sum of moments
        Total    : (-1.15004e-06 2.22489e-06 0.000232592)
        Pressure : (-1.1358e-06 1.8548e-06 0.000229174)
        Viscous  : (-1.42402e-08 3.70085e-07 3.41791e-06)
    writing force and moment files.

Time = 15

smoothSolver:  Solving for Ux, Initial residual = 0.00022501, Final residual = 1.04713e-05, No Iterations 2
smoothSolver:  Solving for Uy, Initial residual = 0.0288999, Final residual = 0.00199487, No Iterations 2
smoothSolver:  Solving for Uz, Initial residual = 0.0258431, Final residual = 0.0018704, No Iterations 2
GAMG:  Solving for p, Initial residual = 0.110861, Final residual = 0.00739487, No Iterations 2
time step continuity errors : sum local = 2.76908e-06, global = 3.88819e-07, cumulative = 3.01881e-06
smoothSolver:  Solving for omega, Initial residual = 0.000312443, Final residual = 4.78359e-06, No Iterations 2
smoothSolver:  Solving for k, Initial residual = 0.0238892, Final residual = 0.000435103, No Iterations 2
ExecutionTime = 9.26 s  ClockTime = 9 s

forces forcesFish write:
    Sum of forces
        Total    : (0.0331887 0.000157571 -6.24932e-05)
        Pressure : (0.013245 0.000168629 -6.74106e-05)
        Viscous  : (0.0199438 -1.10577e-05 4.91735e-06)
    Sum of moments
        Total    : (-6.35248e-07 -1.85219e-05 0.000243015)
        Pressure : (-6.23269e-07 -1.8806e-05 0.000239623)
        Viscous  : (-1.19793e-08 2.84081e-07 3.39172e-06)
    writing force and moment files.

Time = 16

smoothSolver:  Solving for Ux, Initial residual = 0.000215633, Final residual = 1.00004e-05, No Iterations 2
smoothSolver:  Solving for Uy, Initial residual = 0.0277918, Final residual = 0.00198788, No Iterations 2
smoothSolver:  Solving for Uz, Initial residual = 0.0247988, Final residual = 0.00185662, No Iterations 2
GAMG:  Solving for p, Initial residual = 0.12225, Final residual = 0.00767772, No Iterations 2
time step continuity errors : sum local = 2.64951e-06, global = 2.3249e-07, cumulative = 3.2513e-06
smoothSolver:  Solving for omega, Initial residual = 0.000268847, Final residual = 4.16611e-06, No Iterations 2
smoothSolver:  Solving for k, Initial residual = 0.0215123, Final residual = 0.000397649, No Iterations 2
ExecutionTime = 9.78 s  ClockTime = 10 s

forces forcesFish write:
    Sum of forces
        Total    : (0.0324349 7.64645e-05 -5.25665e-05)
        Pressure : (0.0127312 8.8323e-05 -5.83068e-05)
        Viscous  : (0.0197037 -1.18584e-05 5.74026e-06)
    Sum of moments
        Total    : (-1.29302e-07 -3.04893e-05 0.000222013)
        Pressure : (-1.21365e-07 -3.06934e-05 0.000218837)
        Viscous  : (-7.93727e-09 2.04095e-07 3.17605e-06)
    writing force and moment files.

Time = 17

smoothSolver:  Solving for Ux, Initial residual = 0.000198979, Final residual = 9.18494e-06, No Iterations 2
smoothSolver:  Solving for Uy, Initial residual = 0.0232208, Final residual = 0.00162336, No Iterations 2
smoothSolver:  Solving for Uz, Initial residual = 0.0208634, Final residual = 0.00153018, No Iterations 2
GAMG:  Solving for p, Initial residual = 0.109394, Final residual = 0.00678165, No Iterations 2
time step continuity errors : sum local = 2.66478e-06, global = 2.67789e-08, cumulative = 3.27808e-06
smoothSolver:  Solving for omega, Initial residual = 0.000232655, Final residual = 3.64698e-06, No Iterations 2
smoothSolver:  Solving for k, Initial residual = 0.0194656, Final residual = 0.000364453, No Iterations 2
ExecutionTime = 10.29 s  ClockTime = 10 s

forces forcesFish write:
    Sum of forces
        Total    : (0.0303955 7.05007e-06 -4.9856e-05)
        Pressure : (0.0109091 2.04703e-05 -5.60043e-05)
        Viscous  : (0.0194864 -1.34202e-05 6.14827e-06)
    Sum of moments
        Total    : (3.05982e-07 -3.3245e-05 0.000182973)
        Pressure : (3.08899e-07 -3.33799e-05 0.000180163)
        Viscous  : (-2.91718e-09 1.34865e-07 2.81013e-06)
    writing force and moment files.

Time = 18

smoothSolver:  Solving for Ux, Initial residual = 0.000177765, Final residual = 8.15256e-06, No Iterations 2
smoothSolver:  Solving for Uy, Initial residual = 0.0169818, Final residual = 0.00109539, No Iterations 2
smoothSolver:  Solving for Uz, Initial residual = 0.015558, Final residual = 0.00104372, No Iterations 2
GAMG:  Solving for p, Initial residual = 0.0788427, Final residual = 0.00544205, No Iterations 2
time step continuity errors : sum local = 2.77721e-06, global = -1.44174e-07, cumulative = 3.13391e-06
smoothSolver:  Solving for omega, Initial residual = 0.000202369, Final residual = 3.20818e-06, No Iterations 2
smoothSolver:  Solving for k, Initial residual = 0.0177115, Final residual = 0.000335276, No Iterations 2
ExecutionTime = 10.82 s  ClockTime = 11 s

forces forcesFish write:
    Sum of forces
        Total    : (0.0277981 -2.50802e-05 -5.16234e-05)
        Pressure : (0.00850814 -9.73624e-06 -5.77686e-05)
        Viscous  : (0.01929 -1.5344e-05 6.14517e-06)
    Sum of moments
        Total    : (5.63948e-07 -2.70138e-05 0.000141217)
        Pressure : (5.61746e-07 -2.71013e-05 0.000138852)
        Viscous  : (2.20195e-09 8.75612e-08 2.36569e-06)
    writing force and moment files.

Time = 19

smoothSolver:  Solving for Ux, Initial residual = 0.000154466, Final residual = 6.97295e-06, No Iterations 2
smoothSolver:  Solving for Uy, Initial residual = 0.0111207, Final residual = 0.00059569, No Iterations 2
smoothSolver:  Solving for Uz, Initial residual = 0.0104217, Final residual = 0.00054402, No Iterations 2
GAMG:  Solving for p, Initial residual = 0.0530739, Final residual = 0.00398959, No Iterations 2
time step continuity errors : sum local = 2.63532e-06, global = -2.73999e-07, cumulative = 2.85991e-06
smoothSolver:  Solving for omega, Initial residual = 0.000176859, Final residual = 2.83527e-06, No Iterations 2
smoothSolver:  Solving for k, Initial residual = 0.0161745, Final residual = 0.000309047, No Iterations 2
ExecutionTime = 11.37 s  ClockTime = 11 s

forces forcesFish write:
    Sum of forces
        Total    : (0.025305 -1.78176e-05 -5.50184e-05)
        Pressure : (0.00619339 -6.48395e-07 -6.08725e-05)
        Viscous  : (0.0191116 -1.71692e-05 5.85409e-06)
    Sum of moments
        Total    : (6.20234e-07 -1.47738e-05 0.000107117)
        Pressure : (6.13719e-07 -1.48386e-05 0.00010518)
        Viscous  : (6.51518e-09 6.48548e-08 1.93718e-06)
    writing force and moment files.

Time = 20

smoothSolver:  Solving for Ux, Initial residual = 0.0001305, Final residual = 5.86388e-06, No Iterations 2
smoothSolver:  Solving for Uy, Initial residual = 0.00801109, Final residual = 0.000341878, No Iterations 2
smoothSolver:  Solving for Uz, Initial residual = 0.00891981, Final residual = 0.000415185, No Iterations 2
GAMG:  Solving for p, Initial residual = 0.0367484, Final residual = 0.00277327, No Iterations 2
time step continuity errors : sum local = 2.23271e-06, global = -3.69833e-07, cumulative = 2.49008e-06
smoothSolver:  Solving for omega, Initial residual = 0.000155259, Final residual = 2.51589e-06, No Iterations 2
smoothSolver:  Solving for k, Initial residual = 0.0148349, Final residual = 0.000285645, No Iterations 2
ExecutionTime = 11.9 s  ClockTime = 12 s

forces forcesFish write:
    Sum of forces
        Total    : (0.0233508 1.62608e-05 -5.75654e-05)
        Pressure : (0.0044028 3.48126e-05 -6.29951e-05)
        Viscous  : (0.018948 -1.85518e-05 5.42969e-06)
    Sum of moments
        Total    : (5.08212e-07 -5.72707e-07 8.52786e-05)
        Pressure : (4.98672e-07 -6.36112e-07 8.36844e-05)
        Viscous  : (9.54042e-09 6.34051e-08 1.59412e-06)
    writing force and moment files.

Time = 21

smoothSolver:  Solving for Ux, Initial residual = 0.000109786, Final residual = 5.09316e-06, No Iterations 2
smoothSolver:  Solving for Uy, Initial residual = 0.00741456, Final residual = 0.000372121, No Iterations 2
smoothSolver:  Solving for Uz, Initial residual = 0.00946364, Final residual = 0.000542675, No Iterations 2
GAMG:  Solving for p, Initial residual = 0.0276043, Final residual = 0.00185692, No Iterations 2
time step continuity errors : sum local = 1.69979e-06, global = -4.29123e-07, cumulative = 2.06095e-06
smoothSolver:  Solving for omega, Initial residual = 0.000136806, Final residual = 2.23973e-06, No Iterations 2
smoothSolver:  Solving for k, Initial residual = 0.0136432, Final residual = 0.000264327, No Iterations 2
ExecutionTime = 12.4 s  ClockTime = 12 s

forces forcesFish write:
    Sum of forces
        Total    : (0.0221212 5.77275e-05 -5.79246e-05)
        Pressure : (0.0033256 7.70723e-05 -6.29329e-05)
        Viscous  : (0.0187956 -1.93448e-05 5.0083e-06)
    Sum of moments
        Total    : (2.95573e-07 1.17526e-05 7.5514e-05)
        Pressure : (2.84497e-07 1.16777e-05 7.41518e-05)
        Viscous  : (1.1076e-08 7.48363e-08 1.36218e-06)
    writing force and moment files.

Time = 22

smoothSolver:  Solving for Ux, Initial residual = 9.50099e-05, Final residual = 4.54384e-06, No Iterations 2
smoothSolver:  Solving for Uy, Initial residual = 0.00740103, Final residual = 0.000416142, No Iterations 2
smoothSolver:  Solving for Uz, Initial residual = 0.00980743, Final residual = 0.000626826, No Iterations 2
GAMG:  Solving for p, Initial residual = 0.0238618, Final residual = 0.00140466, No Iterations 2
time step continuity errors : sum local = 1.37276e-06, global = -4.63344e-07, cumulative = 1.59761e-06
smoothSolver:  Solving for omega, Initial residual = 0.000120912, Final residual = 1.99889e-06, No Iterations 2
smoothSolver:  Solving for k, Initial residual = 0.0125861, Final residual = 0.000244991, No Iterations 2
ExecutionTime = 12.91 s  ClockTime = 13 s

forces forcesFish write:
    Sum of forces
        Total    : (0.0215737 8.95765e-05 -5.54011e-05)
        Pressure : (0.00292194 0.000109166 -6.00992e-05)
        Viscous  : (0.0186518 -1.959e-05 4.69812e-06)
    Sum of moments
        Total    : (5.10058e-08 1.94723e-05 7.4566e-05)
        Pressure : (3.96656e-08 1.93814e-05 7.332e-05)
        Viscous  : (1.13402e-08 9.09506e-08 1.24602e-06)
    writing force and moment files.

Time = 23

smoothSolver:  Solving for Ux, Initial residual = 9.02129e-05, Final residual = 4.23277e-06, No Iterations 2
smoothSolver:  Solving for Uy, Initial residual = 0.00728642, Final residual = 0.000412928, No Iterations 2
smoothSolver:  Solving for Uz, Initial residual = 0.00950887, Final residual = 0.000619011, No Iterations 2
GAMG:  Solving for p, Initial residual = 0.022977, Final residual = 0.0012912, No Iterations 2
time step continuity errors : sum local = 1.28336e-06, global = -4.46585e-07, cumulative = 1.15103e-06
smoothSolver:  Solving for omega, Initial residual = 0.000107131, Final residual = 1.78766e-06, No Iterations 2
smoothSolver:  Solving for k, Initial residual = 0.0116333, Final residual = 0.000227185, No Iterations 2
ExecutionTime = 13.44 s  ClockTime = 13 s

forces forcesFish write:
    Sum of forces
        Total    : (0.021495 0.000106103 -4.70353e-05)
        Pressure : (0.00298092 0.00012549 -5.1564e-05)
        Viscous  : (0.0185141 -1.93873e-05 4.52868e-06)
    Sum of moments
        Total    : (-1.88704e-07 2.2017e-05 7.83086e-05)
        Pressure : (-1.99496e-07 2.19115e-05 7.70819e-05)
        Viscous  : (1.0792e-08 1.05484e-07 1.22667e-06)
    writing force and moment files.

Time = 24

smoothSolver:  Solving for Ux, Initial residual = 8.78078e-05, Final residual = 3.96868e-06, No Iterations 2
smoothSolver:  Solving for Uy, Initial residual = 0.00686782, Final residual = 0.000358325, No Iterations 2
smoothSolver:  Solving for Uz, Initial residual = 0.00849227, Final residual = 0.000525771, No Iterations 2
GAMG:  Solving for p, Initial residual = 0.0228856, Final residual = 0.00130677, No Iterations 2
time step continuity errors : sum local = 1.27713e-06, global = -3.86644e-07, cumulative = 7.64382e-07
smoothSolver:  Solving for omega, Initial residual = 9.51151e-05, Final residual = 1.60011e-06, No Iterations 2
smoothSolver:  Solving for k, Initial residual = 0.0107735, Final residual = 0.000210794, No Iterations 2
ExecutionTime = 13.95 s  ClockTime = 14 s

forces forcesFish write:
    Sum of forces
        Total    : (0.0217068 0.000100801 -3.34578e-05)
        Pressure : (0.00332608 0.000119693 -3.79342e-05)
        Viscous  : (0.0183807 -1.88919e-05 4.47645e-06)
    Sum of moments
        Total    : (-3.86734e-07 1.9575e-05 8.30761e-05)
        Pressure : (-3.9637e-07 1.94579e-05 8.18003e-05)
        Viscous  : (9.63655e-09 1.17054e-07 1.27586e-06)
    writing force and moment files.

Time = 25

smoothSolver:  Solving for Ux, Initial residual = 8.46424e-05, Final residual = 3.68211e-06, No Iterations 2
smoothSolver:  Solving for Uy, Initial residual = 0.00619893, Final residual = 0.000277899, No Iterations 2
smoothSolver:  Solving for Uz, Initial residual = 0.00697025, Final residual = 0.000380641, No Iterations 2
GAMG:  Solving for p, Initial residual = 0.0220826, Final residual = 0.00128467, No Iterations 2
time step continuity errors : sum local = 1.20405e-06, global = -3.07463e-07, cumulative = 4.56919e-07
smoothSolver:  Solving for omega, Initial residual = 8.45843e-05, Final residual = 1.43312e-06, No Iterations 2
smoothSolver:  Solving for k, Initial residual = 0.00999104, Final residual = 0.000195603, No Iterations 2
ExecutionTime = 14.47 s  ClockTime = 14 s

forces forcesFish write:
    Sum of forces
        Total    : (0.0220289 7.51266e-05 -1.78496e-05)
        Pressure : (0.00377789 9.33788e-05 -2.23623e-05)
        Viscous  : (0.018251 -1.82523e-05 4.51272e-06)
    Sum of moments
        Total    : (-5.08869e-07 1.3389e-05 8.63275e-05)
        Pressure : (-5.17019e-07 1.32681e-05 8.4962e-05)
        Viscous  : (8.15033e-09 1.2085e-07 1.36547e-06)
    writing force and moment files.

Time = 26

smoothSolver:  Solving for Ux, Initial residual = 8.16586e-05, Final residual = 3.41688e-06, No Iterations 2
smoothSolver:  Solving for Uy, Initial residual = 0.00577406, Final residual = 0.000238497, No Iterations 2
smoothSolver:  Solving for Uz, Initial residual = 0.00553226, Final residual = 0.000254715, No Iterations 2
GAMG:  Solving for p, Initial residual = 0.0205862, Final residual = 0.00114558, No Iterations 2
time step continuity errors : sum local = 1.01908e-06, global = -2.18548e-07, cumulative = 2.38371e-07
smoothSolver:  Solving for omega, Initial residual = 7.53048e-05, Final residual = 1.2839e-06, No Iterations 2
smoothSolver:  Solving for k, Initial residual = 0.00927445, Final residual = 0.000181462, No Iterations 2
ExecutionTime = 14.98 s  ClockTime = 15 s

forces forcesFish write:
    Sum of forces
        Total    : (0.022312 3.84775e-05 -3.65386e-06)
        Pressure : (0.00418747 5.60675e-05 -8.24501e-06)
        Viscous  : (0.0181246 -1.759e-05 4.59114e-06)
    Sum of moments
        Total    : (-5.46099e-07 5.56243e-06 8.71111e-05)
        Pressure : (-5.52805e-07 5.44638e-06 8.56406e-05)
        Viscous  : (6.70594e-09 1.16058e-07 1.47047e-06)
    writing force and moment files.

Time = 27

smoothSolver:  Solving for Ux, Initial residual = 7.84436e-05, Final residual = 3.1949e-06, No Iterations 2
smoothSolver:  Solving for Uy, Initial residual = 0.00575176, Final residual = 0.000259516, No Iterations 2
smoothSolver:  Solving for Uz, Initial residual = 0.00469848, Final residual = 0.000203315, No Iterations 2
GAMG:  Solving for p, Initial residual = 0.0186495, Final residual = 0.000951021, No Iterations 2
time step continuity errors : sum local = 8.07999e-07, global = -1.30266e-07, cumulative = 1.08105e-07
smoothSolver:  Solving for omega, Initial residual = 6.70892e-05, Final residual = 1.15011e-06, No Iterations 2
smoothSolver:  Solving for k, Initial residual = 0.00861814, Final residual = 0.000168321, No Iterations 2
ExecutionTime = 15.48 s  ClockTime = 15 s

forces forcesFish write:
    Sum of forces
        Total    : (0.0224655 3.06717e-06 6.72179e-06)
        Pressure : (0.00446392 2.00426e-05 2.05159e-06)
        Viscous  : (0.0180016 -1.69754e-05 4.67021e-06)
    Sum of moments
        Total    : (-5.10727e-07 -1.75905e-06 8.57495e-05)
        Pressure : (-5.16299e-07 -1.86718e-06 8.41756e-05)
        Viscous  : (5.57228e-09 1.08133e-07 1.57386e-06)
    writing force and moment files.

Time = 28

smoothSolver:  Solving for Ux, Initial residual = 7.51604e-05, Final residual = 3.01196e-06, No Iterations 2
smoothSolver:  Solving for Uy, Initial residual = 0.0059618, Final residual = 0.000298308, No Iterations 2
smoothSolver:  Solving for Uz, Initial residual = 0.00454089, Final residual = 0.000214525, No Iterations 2
GAMG:  Solving for p, Initial residual = 0.0167549, Final residual = 0.000900285, No Iterations 2
time step continuity errors : sum local = 7.44533e-07, global = -3.93495e-08, cumulative = 6.87555e-08
smoothSolver:  Solving for omega, Initial residual = 5.97847e-05, Final residual = 1.02977e-06, No Iterations 2
smoothSolver:  Solving for k, Initial residual = 0.00801015, Final residual = 0.000155991, No Iterations 2
ExecutionTime = 16.01 s  ClockTime = 16 s

forces forcesFish write:
    Sum of forces
        Total    : (0.0224598 -2.04774e-05 1.25778e-05)
        Pressure : (0.00457752 -4.0729e-06 7.86565e-06)
        Viscous  : (0.0178822 -1.64045e-05 4.71211e-06)
    Sum of moments
        Total    : (-4.25138e-07 -7.00595e-06 8.32895e-05)
        Pressure : (-4.2998e-07 -7.10455e-06 8.16273e-05)
        Viscous  : (4.84235e-09 9.8592e-08 1.66224e-06)
    writing force and moment files.

Time = 29

smoothSolver:  Solving for Ux, Initial residual = 7.19685e-05, Final residual = 2.85953e-06, No Iterations 2
smoothSolver:  Solving for Uy, Initial residual = 0.0061158, Final residual = 0.000311901, No Iterations 2
smoothSolver:  Solving for Uz, Initial residual = 0.00441956, Final residual = 0.000216574, No Iterations 2
GAMG:  Solving for p, Initial residual = 0.0154673, Final residual = 0.0010108, No Iterations 2
time step continuity errors : sum local = 8.3242e-07, global = 6.14439e-08, cumulative = 1.30199e-07
smoothSolver:  Solving for omega, Initial residual = 5.32634e-05, Final residual = 9.21088e-07, No Iterations 2
smoothSolver:  Solving for k, Initial residual = 0.00745109, Final residual = 0.000144518, No Iterations 2
ExecutionTime = 16.56 s  ClockTime = 16 s

forces forcesFish write:
    Sum of forces
        Total    : (0.0223278 -2.93108e-05 1.32771e-05)
        Pressure : (0.00456117 -1.34539e-05 8.56726e-06)
        Viscous  : (0.0177667 -1.58569e-05 4.70988e-06)
    Sum of moments
        Total    : (-3.15377e-07 -9.74153e-06 8.06011e-05)
        Pressure : (-3.19865e-07 -9.82891e-06 7.88641e-05)
        Viscous  : (4.48815e-09 8.73863e-08 1.737e-06)
    writing force and moment files.

Time = 30

smoothSolver:  Solving for Ux, Initial residual = 6.84603e-05, Final residual = 2.72516e-06, No Iterations 2
smoothSolver:  Solving for Uy, Initial residual = 0.00606721, Final residual = 0.000295168, No Iterations 2
smoothSolver:  Solving for Uz, Initial residual = 0.00408356, Final residual = 0.000190386, No Iterations 2
GAMG:  Solving for p, Initial residual = 0.01432, Final residual = 0.000940495, No Iterations 2
time step continuity errors : sum local = 7.83917e-07, global = 1.17086e-07, cumulative = 2.47286e-07
smoothSolver:  Solving for omega, Initial residual = 4.74309e-05, Final residual = 8.23618e-07, No Iterations 2
smoothSolver:  Solving for k, Initial residual = 0.00692855, Final residual = 0.000133687, No Iterations 2
ExecutionTime = 17.07 s  ClockTime = 17 s

forces forcesFish write:
    Sum of forces
        Total    : (0.0221066 -2.18461e-05 8.65518e-06)
        Pressure : (0.00445171 -6.55899e-06 3.98487e-06)
        Viscous  : (0.0176548 -1.52871e-05 4.67032e-06)
    Sum of moments
        Total    : (-1.99591e-07 -1.01503e-05 7.82888e-05)
        Pressure : (-2.04076e-07 -1.02249e-05 7.64836e-05)
        Viscous  : (4.48522e-09 7.46075e-08 1.80511e-06)
    writing force and moment files.

Time = 31

smoothSolver:  Solving for Ux, Initial residual = 6.486e-05, Final residual = 2.59289e-06, No Iterations 2
smoothSolver:  Solving for Uy, Initial residual = 0.00577515, Final residual = 0.000251886, No Iterations 2
smoothSolver:  Solving for Uz, Initial residual = 0.00359146, Final residual = 0.000144008, No Iterations 2
GAMG:  Solving for p, Initial residual = 0.0129342, Final residual = 0.000889881, No Iterations 2
time step continuity errors : sum local = 7.61094e-07, global = 1.52265e-07, cumulative = 3.9955e-07
smoothSolver:  Solving for omega, Initial residual = 4.2199e-05, Final residual = 7.3581e-07, No Iterations 2
smoothSolver:  Solving for k, Initial residual = 0.00644547, Final residual = 0.00012357, No Iterations 2
ExecutionTime = 17.57 s  ClockTime = 17 s

forces forcesFish write:
    Sum of forces
        Total    : (0.0218324 2.34329e-06 4.91426e-07)
        Pressure : (0.00428561 1.70034e-05 -4.11202e-06)
        Viscous  : (0.0175468 -1.46601e-05 4.60345e-06)
    Sum of moments
        Total    : (-9.82721e-08 -8.4207e-06 7.70547e-05)
        Pressure : (-1.03056e-07 -8.48292e-06 7.51851e-05)
        Viscous  : (4.78421e-09 6.22263e-08 1.86953e-06)
    writing force and moment files.

Time = 32

smoothSolver:  Solving for Ux, Initial residual = 6.07531e-05, Final residual = 2.44602e-06, No Iterations 2
smoothSolver:  Solving for Uy, Initial residual = 0.00530457, Final residual = 0.000199101, No Iterations 2
smoothSolver:  Solving for Uz, Initial residual = 0.00318154, Final residual = 0.000107264, No Iterations 2
GAMG:  Solving for p, Initial residual = 0.0116963, Final residual = 0.000801176, No Iterations 2
time step continuity errors : sum local = 7.07621e-07, global = 1.70079e-07, cumulative = 5.69629e-07
smoothSolver:  Solving for omega, Initial residual = 3.74952e-05, Final residual = 6.56466e-07, No Iterations 2
smoothSolver:  Solving for k, Initial residual = 0.00599209, Final residual = 0.000113992, No Iterations 2
ExecutionTime = 18.07 s  ClockTime = 18 s

forces forcesFish write:
    Sum of forces
        Total    : (0.0215464 3.78275e-05 -8.38113e-06)
        Pressure : (0.00410414 5.17748e-05 -1.29021e-05)
        Viscous  : (0.0174423 -1.39473e-05 4.52101e-06)
    Sum of moments
        Total    : (-2.60062e-08 -5.40958e-06 7.69249e-05)
        Pressure : (-3.13039e-08 -5.46131e-06 7.49906e-05)
        Viscous  : (5.29772e-09 5.17219e-08 1.93424e-06)
    writing force and moment files.

Time = 33

smoothSolver:  Solving for Ux, Initial residual = 5.61497e-05, Final residual = 2.28561e-06, No Iterations 2
smoothSolver:  Solving for Uy, Initial residual = 0.00481476, Final residual = 0.000159705, No Iterations 2
smoothSolver:  Solving for Uz, Initial residual = 0.00299729, Final residual = 0.000101388, No Iterations 2
GAMG:  Solving for p, Initial residual = 0.0105256, Final residual = 0.000671189, No Iterations 2
time step continuity errors : sum local = 6.10774e-07, global = 1.73385e-07, cumulative = 7.43013e-07
smoothSolver:  Solving for omega, Initial residual = 3.32596e-05, Final residual = 5.84717e-07, No Iterations 2
smoothSolver:  Solving for k, Initial residual = 0.00556955, Final residual = 0.000104982, No Iterations 2
ExecutionTime = 18.57 s  ClockTime = 18 s

forces forcesFish write:
    Sum of forces
        Total    : (0.0212804 7.66524e-05 -1.5436e-05)
        Pressure : (0.00393943 8.98013e-05 -1.98785e-05)
        Viscous  : (0.017341 -1.31489e-05 4.44245e-06)
    Sum of moments
        Total    : (1.25645e-08 -2.17883e-06 7.74462e-05)
        Pressure : (6.67772e-09 -2.22068e-06 7.54416e-05)
        Viscous  : (5.88681e-09 4.18501e-08 2.00461e-06)
    writing force and moment files.

Time = 34

smoothSolver:  Solving for Ux, Initial residual = 5.16632e-05, Final residual = 2.12663e-06, No Iterations 2
smoothSolver:  Solving for Uy, Initial residual = 0.00443941, Final residual = 0.000144743, No Iterations 2
smoothSolver:  Solving for Uz, Initial residual = 0.00285112, Final residual = 0.00010689, No Iterations 2
GAMG:  Solving for p, Initial residual = 0.00951553, Final residual = 0.000541703, No Iterations 2
time step continuity errors : sum local = 5.03824e-07, global = 1.65591e-07, cumulative = 9.08604e-07
smoothSolver:  Solving for omega, Initial residual = 2.94403e-05, Final residual = 5.19816e-07, No Iterations 2
smoothSolver:  Solving for k, Initial residual = 0.00517123, Final residual = 9.64232e-05, No Iterations 2
ExecutionTime = 19.09 s  ClockTime = 19 s

forces forcesFish write:
    Sum of forces
        Total    : (0.0210524 0.000111363 -1.92214e-05)
        Pressure : (0.00380968 0.000123643 -2.36037e-05)
        Viscous  : (0.0172427 -1.22798e-05 4.38234e-06)
    Sum of moments
        Total    : (2.04165e-08 4.0864e-07 7.80013e-05)
        Pressure : (1.39491e-08 3.76625e-07 7.5919e-05)
        Viscous  : (6.4674e-09 3.20153e-08 2.08239e-06)
    writing force and moment files.

Time = 35

smoothSolver:  Solving for Ux, Initial residual = 4.79954e-05, Final residual = 1.98246e-06, No Iterations 2
smoothSolver:  Solving for Uy, Initial residual = 0.00415862, Final residual = 0.000143872, No Iterations 2
smoothSolver:  Solving for Uz, Initial residual = 0.00264054, Final residual = 0.000107495, No Iterations 2
GAMG:  Solving for p, Initial residual = 0.00876474, Final residual = 0.00046268, No Iterations 2
time step continuity errors : sum local = 4.35328e-07, global = 1.48256e-07, cumulative = 1.05686e-06
smoothSolver:  Solving for omega, Initial residual = 2.59943e-05, Final residual = 4.61177e-07, No Iterations 2
smoothSolver:  Solving for k, Initial residual = 0.00479664, Final residual = 8.83162e-05, No Iterations 2
ExecutionTime = 19.59 s  ClockTime = 19 s

forces forcesFish write:
    Sum of forces
        Total    : (0.0208658 0.000137206 -1.93221e-05)
        Pressure : (0.00371887 0.000148569 -2.36679e-05)
        Viscous  : (0.0171469 -1.13628e-05 4.34576e-06)
    Sum of moments
        Total    : (4.53325e-09 1.88196e-06 7.80695e-05)
        Pressure : (-2.43291e-09 1.86034e-06 7.59043e-05)
        Viscous  : (6.96616e-09 2.16135e-08 2.16521e-06)
    writing force and moment files.

Time = 36

smoothSolver:  Solving for Ux, Initial residual = 4.52849e-05, Final residual = 1.85501e-06, No Iterations 2
smoothSolver:  Solving for Uy, Initial residual = 0.00397091, Final residual = 0.000146173, No Iterations 2
smoothSolver:  Solving for Uz, Initial residual = 0.0023888, Final residual = 0.000100284, No Iterations 2
GAMG:  Solving for p, Initial residual = 0.00821471, Final residual = 0.000439383, No Iterations 2
time step continuity errors : sum local = 4.14374e-07, global = 1.25215e-07, cumulative = 1.18208e-06
smoothSolver:  Solving for omega, Initial residual = 2.28847e-05, Final residual = 4.08277e-07, No Iterations 2
smoothSolver:  Solving for k, Initial residual = 0.00444116, Final residual = 8.05876e-05, No Iterations 2
ExecutionTime = 20.1 s  ClockTime = 20 s

forces forcesFish write:
    Sum of forces
        Total    : (0.0207139 0.000152522 -1.58866e-05)
        Pressure : (0.00366033 0.000162949 -2.02163e-05)
        Viscous  : (0.0170535 -1.04266e-05 4.32969e-06)
    Sum of moments
        Total    : (-2.67342e-08 2.13854e-06 7.73192e-05)
        Pressure : (-3.40729e-08 2.12638e-06 7.50664e-05)
        Viscous  : (7.33875e-09 1.21542e-08 2.25274e-06)
    writing force and moment files.

Time = 37

smoothSolver:  Solving for Ux, Initial residual = 4.28947e-05, Final residual = 1.73729e-06, No Iterations 2
smoothSolver:  Solving for Uy, Initial residual = 0.00385393, Final residual = 0.000146146, No Iterations 2
smoothSolver:  Solving for Uz, Initial residual = 0.00212758, Final residual = 8.73934e-05, No Iterations 2
GAMG:  Solving for p, Initial residual = 0.00775001, Final residual = 0.000454519, No Iterations 2
time step continuity errors : sum local = 4.2673e-07, global = 9.98077e-08, cumulative = 1.28188e-06
smoothSolver:  Solving for omega, Initial residual = 2.0078e-05, Final residual = 3.60585e-07, No Iterations 2
smoothSolver:  Solving for k, Initial residual = 0.00410385, Final residual = 7.32371e-05, No Iterations 2
ExecutionTime = 20.61 s  ClockTime = 20 s

forces forcesFish write:
    Sum of forces
        Total    : (0.0205875 0.000157143 -9.60896e-06)
        Pressure : (0.00362526 0.000166643 -1.39424e-05)
        Viscous  : (0.0169622 -9.50074e-06 4.33344e-06)
    Sum of moments
        Total    : (-6.4561e-08 1.30635e-06 7.55914e-05)
        Pressure : (-7.21665e-08 1.30446e-06 7.32493e-05)
        Viscous  : (7.60552e-09 1.8899e-09 2.34206e-06)
    writing force and moment files.

Time = 38

smoothSolver:  Solving for Ux, Initial residual = 4.02808e-05, Final residual = 1.62314e-06, No Iterations 2
smoothSolver:  Solving for Uy, Initial residual = 0.00365165, Final residual = 0.000140967, No Iterations 2
smoothSolver:  Solving for Uz, Initial residual = 0.00189162, Final residual = 7.28638e-05, No Iterations 2
GAMG:  Solving for p, Initial residual = 0.00732941, Final residual = 0.000466755, No Iterations 2
time step continuity errors : sum local = 4.34351e-07, global = 7.42078e-08, cumulative = 1.35609e-06
smoothSolver:  Solving for omega, Initial residual = 1.75473e-05, Final residual = 3.17723e-07, No Iterations 2
smoothSolver:  Solving for k, Initial residual = 0.00378122, Final residual = 6.62234e-05, No Iterations 2
ExecutionTime = 21.11 s  ClockTime = 21 s

forces forcesFish write:
    Sum of forces
        Total    : (0.0204788 0.00015241 -1.8491e-06)
        Pressure : (0.00360595 0.000161017 -6.19807e-06)
        Viscous  : (0.0168728 -8.60661e-06 4.34897e-06)
    Sum of moments
        Total    : (-1.00372e-07 -2.76412e-07 7.29876e-05)
        Pressure : (-1.08123e-07 -2.67875e-07 7.05571e-05)
        Viscous  : (7.75071e-09 -8.53745e-09 2.43056e-06)
    writing force and moment files.

Time = 39

smoothSolver:  Solving for Ux, Initial residual = 3.74297e-05, Final residual = 1.51255e-06, No Iterations 2
smoothSolver:  Solving for Uy, Initial residual = 0.00340907, Final residual = 0.000134038, No Iterations 2
smoothSolver:  Solving for Uz, Initial residual = 0.00169873, Final residual = 6.12721e-05, No Iterations 2
GAMG:  Solving for p, Initial residual = 0.00699759, Final residual = 0.000458082, No Iterations 2
time step continuity errors : sum local = 4.21858e-07, global = 5.02e-08, cumulative = 1.40629e-06
smoothSolver:  Solving for omega, Initial residual = 1.52709e-05, Final residual = 2.79411e-07, No Iterations 2
smoothSolver:  Solving for k, Initial residual = 0.00347284, Final residual = 5.95637e-05, No Iterations 2
ExecutionTime = 21.63 s  ClockTime = 22 s

forces forcesFish write:
    Sum of forces
        Total    : (0.0203809 0.000141343 5.75225e-06)
        Pressure : (0.00359569 0.000149097 1.38181e-06)
        Viscous  : (0.0167852 -7.75368e-06 4.37044e-06)
    Sum of moments
        Total    : (-1.2679e-07 -2.13479e-06 6.98531e-05)
        Pressure : (-1.34582e-07 -2.11547e-06 6.73355e-05)
        Viscous  : (7.79138e-09 -1.93212e-08 2.51766e-06)
    writing force and moment files.

Time = 40

smoothSolver:  Solving for Ux, Initial residual = 3.44894e-05, Final residual = 1.40682e-06, No Iterations 2
smoothSolver:  Solving for Uy, Initial residual = 0.00315555, Final residual = 0.000125726, No Iterations 2
smoothSolver:  Solving for Uz, Initial residual = 0.00157206, Final residual = 5.51708e-05, No Iterations 2
GAMG:  Solving for p, Initial residual = 0.0067143, Final residual = 0.000425672, No Iterations 2
time step continuity errors : sum local = 3.88432e-07, global = 2.76084e-08, cumulative = 1.4339e-06
smoothSolver:  Solving for omega, Initial residual = 1.32295e-05, Final residual = 2.45374e-07, No Iterations 2
smoothSolver:  Solving for k, Initial residual = 0.00317598, Final residual = 5.32389e-05, No Iterations 2
ExecutionTime = 22.16 s  ClockTime = 22 s

forces forcesFish write:
    Sum of forces
        Total    : (0.0202887 0.000127654 1.1794e-05)
        Pressure : (0.00358921 0.000134602 7.40759e-06)
        Viscous  : (0.0166995 -6.94782e-06 4.38639e-06)
    Sum of moments
        Total    : (-1.3928e-07 -3.80572e-06 6.66315e-05)
        Pressure : (-1.46999e-07 -3.77744e-06 6.40301e-05)
        Viscous  : (7.71831e-09 -2.82838e-08 2.60141e-06)
    writing force and moment files.

Time = 41

smoothSolver:  Solving for Ux, Initial residual = 3.17436e-05, Final residual = 1.3121e-06, No Iterations 2
smoothSolver:  Solving for Uy, Initial residual = 0.00290028, Final residual = 0.000115591, No Iterations 2
smoothSolver:  Solving for Uz, Initial residual = 0.00151179, Final residual = 5.45116e-05, No Iterations 2
GAMG:  Solving for p, Initial residual = 0.00644903, Final residual = 0.00037932, No Iterations 2
time step continuity errors : sum local = 3.44109e-07, global = 6.30448e-09, cumulative = 1.4402e-06
smoothSolver:  Solving for omega, Initial residual = 1.14074e-05, Final residual = 2.15358e-07, No Iterations 2
smoothSolver:  Solving for k, Initial residual = 0.00289136, Final residual = 4.72894e-05, No Iterations 2
ExecutionTime = 22.71 s  ClockTime = 23 s

forces forcesFish write:
    Sum of forces
        Total    : (0.0201986 0.000114669 1.54536e-05)
        Pressure : (0.00358301 0.000120854 1.10603e-05)
        Viscous  : (0.0166156 -6.18465e-06 4.39326e-06)
    Sum of moments
        Total    : (-1.36874e-07 -4.966e-06 6.37177e-05)
        Pressure : (-1.44417e-07 -4.93061e-06 6.10349e-05)
        Viscous  : (7.54215e-09 -3.5384e-08 2.68287e-06)
    writing force and moment files.

Time = 42

smoothSolver:  Solving for Ux, Initial residual = 3.00054e-05, Final residual = 1.2415e-06, No Iterations 2
smoothSolver:  Solving for Uy, Initial residual = 0.00262664, Final residual = 0.000103644, No Iterations 2
smoothSolver:  Solving for Uz, Initial residual = 0.00148456, Final residual = 5.4683e-05, No Iterations 2
GAMG:  Solving for p, Initial residual = 0.00619301, Final residual = 0.000332949, No Iterations 2
time step continuity errors : sum local = 3.01503e-07, global = -1.27362e-08, cumulative = 1.42747e-06
smoothSolver:  Solving for omega, Initial residual = 9.79106e-06, Final residual = 1.89078e-07, No Iterations 2
smoothSolver:  Solving for k, Initial residual = 0.00261694, Final residual = 4.1707e-05, No Iterations 2
ExecutionTime = 23.22 s  ClockTime = 23 s

forces forcesFish write:
    Sum of forces
        Total    : (0.0201088 0.000104517 1.65292e-05)
        Pressure : (0.0035753 0.000109975 1.21372e-05)
        Viscous  : (0.0165335 -5.458e-06 4.39198e-06)
    Sum of moments
        Total    : (-1.21871e-07 -5.48218e-06 6.1338e-05)
        Pressure : (-1.29191e-07 -5.44044e-06 5.85762e-05)
        Viscous  : (7.31906e-09 -4.17473e-08 2.76184e-06)
    writing force and moment files.

Time = 43

smoothSolver:  Solving for Ux, Initial residual = 2.94747e-05, Final residual = 1.19491e-06, No Iterations 2
smoothSolver:  Solving for Uy, Initial residual = 0.00234766, Final residual = 9.07545e-05, No Iterations 2
smoothSolver:  Solving for Uz, Initial residual = 0.0014491, Final residual = 5.24402e-05, No Iterations 2
GAMG:  Solving for p, Initial residual = 0.00592773, Final residual = 0.000291267, No Iterations 2
time step continuity errors : sum local = 2.64253e-07, global = -3.20224e-08, cumulative = 1.39544e-06
smoothSolver:  Solving for omega, Initial residual = 8.36727e-06, Final residual = 1.66223e-07, No Iterations 2
smoothSolver:  Solving for k, Initial residual = 0.00235443, Final residual = 3.65395e-05, No Iterations 2
ExecutionTime = 23.76 s  ClockTime = 24 s

forces forcesFish write:
    Sum of forces
        Total    : (0.0200188 9.80037e-05 1.5281e-05)
        Pressure : (0.00356557 0.000102766 1.08979e-05)
        Viscous  : (0.0164533 -4.76266e-06 4.38309e-06)
    Sum of moments
        Total    : (-9.81418e-08 -5.37752e-06 5.95355e-05)
        Pressure : (-1.05228e-07 -5.33002e-06 5.66976e-05)
        Viscous  : (7.08632e-09 -4.74992e-08 2.83791e-06)
    writing force and moment files.

Time = 44

smoothSolver:  Solving for Ux, Initial residual = 2.9334e-05, Final residual = 1.15694e-06, No Iterations 2
smoothSolver:  Solving for Uy, Initial residual = 0.00210494, Final residual = 7.84509e-05, No Iterations 2
smoothSolver:  Solving for Uz, Initial residual = 0.00139641, Final residual = 4.8634e-05, No Iterations 2
GAMG:  Solving for p, Initial residual = 0.00566021, Final residual = 0.000257677, No Iterations 2
time step continuity errors : sum local = 2.34861e-07, global = -4.6852e-08, cumulative = 1.34859e-06
smoothSolver:  Solving for omega, Initial residual = 7.12226e-06, Final residual = 1.46471e-07, No Iterations 2
smoothSolver:  Solving for k, Initial residual = 0.00210349, Final residual = 3.17928e-05, No Iterations 2
ExecutionTime = 24.31 s  ClockTime = 24 s

forces forcesFish write:
    Sum of forces
        Total    : (0.0199289 9.50832e-05 1.22547e-05)
        Pressure : (0.00355414 9.91782e-05 7.88537e-06)
        Viscous  : (0.0163748 -4.09501e-06 4.36935e-06)
    Sum of moments
        Total    : (-6.99018e-08 -4.7713e-06 5.82513e-05)
        Pressure : (-7.67524e-08 -4.7183e-06 5.53406e-05)
        Viscous  : (6.85056e-09 -5.2999e-08 2.91072e-06)
    writing force and moment files.

Time = 45

smoothSolver:  Solving for Ux, Initial residual = 2.91067e-05, Final residual = 1.11999e-06, No Iterations 2
smoothSolver:  Solving for Uy, Initial residual = 0.00189108, Final residual = 6.7114e-05, No Iterations 2
smoothSolver:  Solving for Uz, Initial residual = 0.00132769, Final residual = 4.45189e-05, No Iterations 2
GAMG:  Solving for p, Initial residual = 0.00538799, Final residual = 0.000241082, No Iterations 2
time step continuity errors : sum local = 2.21089e-07, global = -5.83339e-08, cumulative = 1.29026e-06
smoothSolver:  Solving for omega, Initial residual = 6.04319e-06, Final residual = 1.29502e-07, No Iterations 2
smoothSolver:  Solving for k, Initial residual = 0.00186543, Final residual = 2.74872e-05, No Iterations 2
ExecutionTime = 24.8 s  ClockTime = 25 s

forces forcesFish write:
    Sum of forces
        Total    : (0.0198396 9.51156e-05 8.19584e-06)
        Pressure : (0.00354156 9.85684e-05 3.84204e-06)
        Viscous  : (0.016298 -3.45275e-06 4.3538e-06)
    Sum of moments
        Total    : (-4.12827e-08 -3.84496e-06 5.73649e-05)
        Pressure : (-4.79124e-08 -3.78631e-06 5.43847e-05)
        Viscous  : (6.62971e-09 -5.86473e-08 2.98014e-06)
    writing force and moment files.

Time = 46

smoothSolver:  Solving for Ux, Initial residual = 2.86375e-05, Final residual = 1.08075e-06, No Iterations 2
smoothSolver:  Solving for Uy, Initial residual = 0.0016973, Final residual = 5.71086e-05, No Iterations 2
smoothSolver:  Solving for Uz, Initial residual = 0.00124786, Final residual = 4.04444e-05, No Iterations 2
GAMG:  Solving for p, Initial residual = 0.00511617, Final residual = 0.000250649, No Iterations 2
time step continuity errors : sum local = 2.31363e-07, global = -6.3935e-08, cumulative = 1.22632e-06
smoothSolver:  Solving for omega, Initial residual = 5.11685e-06, Final residual = 1.14979e-07, No Iterations 2
smoothSolver:  Solving for k, Initial residual = 0.00164162, Final residual = 2.36311e-05, No Iterations 2
ExecutionTime = 25.3 s  ClockTime = 25 s

forces forcesFish write:
    Sum of forces
        Total    : (0.0197513 9.70309e-05 3.90206e-06)
        Pressure : (0.00352834 9.98671e-05 -4.36985e-07)
        Viscous  : (0.016223 -2.83624e-06 4.33904e-06)
    Sum of moments
        Total    : (-1.58232e-08 -2.80138e-06 5.67069e-05)
        Pressure : (-2.22668e-08 -2.73673e-06 5.36607e-05)
        Viscous  : (6.44358e-09 -6.4652e-08 3.04622e-06)
    writing force and moment files.

Time = 47

smoothSolver:  Solving for Ux, Initial residual = 2.79086e-05, Final residual = 1.03876e-06, No Iterations 2
smoothSolver:  Solving for Uy, Initial residual = 0.00152411, Final residual = 4.87878e-05, No Iterations 2
smoothSolver:  Solving for Uz, Initial residual = 0.00116096, Final residual = 3.65663e-05, No Iterations 2
GAMG:  Solving for p, Initial residual = 0.00486529, Final residual = 0.000250684, No Iterations 2
time step continuity errors : sum local = 2.3274e-07, global = -5.9835e-08, cumulative = 1.16649e-06
smoothSolver:  Solving for omega, Initial residual = 4.32935e-06, Final residual = 1.02544e-07, No Iterations 2
smoothSolver:  Solving for k, Initial residual = 0.00143255, Final residual = 2.0209e-05, No Iterations 2
ExecutionTime = 25.83 s  ClockTime = 26 s

forces forcesFish write:
    Sum of forces
        Total    : (0.0196643 9.95546e-05 8.58281e-08)
        Pressure : (0.00351475 0.000101804 -4.24106e-06)
        Viscous  : (0.0161496 -2.24908e-06 4.32689e-06)
    Sum of moments
        Total    : (3.82923e-09 -1.82793e-06 5.6089e-05)
        Pressure : (-2.46049e-09 -1.75683e-06 5.29813e-05)
        Viscous  : (6.28972e-09 -7.11041e-08 3.10776e-06)
    writing force and moment files.

Time = 48

smoothSolver:  Solving for Ux, Initial residual = 2.70679e-05, Final residual = 9.9622e-07, No Iterations 2
smoothSolver:  Solving for Uy, Initial residual = 0.0013759, Final residual = 4.24269e-05, No Iterations 2
smoothSolver:  Solving for Uz, Initial residual = 0.00107181, Final residual = 3.29655e-05, No Iterations 2
GAMG:  Solving for p, Initial residual = 0.00461258, Final residual = 0.000237994, No Iterations 2
time step continuity errors : sum local = 2.21859e-07, global = -5.12852e-08, cumulative = 1.1152e-06
smoothSolver:  Solving for omega, Initial residual = 3.66668e-06, Final residual = 9.18815e-08, No Iterations 2
smoothSolver:  Solving for k, Initial residual = 0.00123993, Final residual = 1.72137e-05, No Iterations 2
ExecutionTime = 26.36 s  ClockTime = 26 s

forces forcesFish write:
    Sum of forces
        Total    : (0.0195789 0.000101334 -2.67657e-06)
        Pressure : (0.00350111 0.000103029 -6.9938e-06)
        Viscous  : (0.0160778 -1.69501e-06 4.31723e-06)
    Sum of moments
        Total    : (1.56592e-08 -1.08809e-06 5.53439e-05)
        Pressure : (9.48569e-09 -1.01058e-06 5.21802e-05)
        Viscous  : (6.17349e-09 -7.75089e-08 3.16379e-06)
    writing force and moment files.

Time = 49

smoothSolver:  Solving for Ux, Initial residual = 2.64737e-05, Final residual = 9.57228e-07, No Iterations 2
smoothSolver:  Solving for Uy, Initial residual = 0.00124679, Final residual = 3.77498e-05, No Iterations 2
smoothSolver:  Solving for Uz, Initial residual = 0.000989471, Final residual = 2.97747e-05, No Iterations 2
GAMG:  Solving for p, Initial residual = 0.00434636, Final residual = 0.000217612, No Iterations 2
time step continuity errors : sum local = 2.03271e-07, global = -4.70895e-08, cumulative = 1.06811e-06
smoothSolver:  Solving for omega, Initial residual = 3.11417e-06, Final residual = 8.27083e-08, No Iterations 2
smoothSolver:  Solving for k, Initial residual = 0.0010645, Final residual = 1.46182e-05, No Iterations 2
ExecutionTime = 26.9 s  ClockTime = 27 s

forces forcesFish write:
    Sum of forces
        Total    : (0.0194956 0.000101358 -4.1365e-06)
        Pressure : (0.00348797 0.000102537 -8.44713e-06)
        Viscous  : (0.0160076 -1.17895e-06 4.31063e-06)
    Sum of moments
        Total    : (1.90953e-08 -6.69536e-07 5.43737e-05)
        Pressure : (1.30086e-08 -5.85418e-07 5.1161e-05)
        Viscous  : (6.08672e-09 -8.41173e-08 3.21275e-06)
    writing force and moment files.

Time = 50

smoothSolver:  Solving for Ux, Initial residual = 2.61474e-05, Final residual = 9.23675e-07, No Iterations 2
smoothSolver:  Solving for Uy, Initial residual = 0.00113119, Final residual = 3.41705e-05, No Iterations 2
smoothSolver:  Solving for Uz, Initial residual = 0.000916397, Final residual = 2.71209e-05, No Iterations 2
GAMG:  Solving for p, Initial residual = 0.00407539, Final residual = 0.000193534, No Iterations 2
time step continuity errors : sum local = 1.80925e-07, global = -4.31245e-08, cumulative = 1.02499e-06
smoothSolver:  Solving for omega, Initial residual = 2.65729e-06, Final residual = 7.47812e-08, No Iterations 2
smoothSolver:  Solving for k, Initial residual = 0.000906352, Final residual = 1.23848e-05, No Iterations 2
ExecutionTime = 27.39 s  ClockTime = 27 s

forces forcesFish write:
    Sum of forces
        Total    : (0.0194147 9.9357e-05 -4.43919e-06)
        Pressure : (0.00347573 0.00010006 -8.7456e-06)
        Viscous  : (0.015939 -7.03462e-07 4.30641e-06)
    Sum of moments
        Total    : (1.56377e-08 -5.48926e-07 5.31715e-05)
        Pressure : (9.62116e-09 -4.57964e-07 4.99172e-05)
        Viscous  : (6.0165e-09 -9.09618e-08 3.25434e-06)
    writing force and moment files.

Time = 51

smoothSolver:  Solving for Ux, Initial residual = 2.58745e-05, Final residual = 8.92764e-07, No Iterations 2
smoothSolver:  Solving for Uy, Initial residual = 0.00103265, Final residual = 3.13095e-05, No Iterations 2
smoothSolver:  Solving for Uz, Initial residual = 0.000854664, Final residual = 2.49925e-05, No Iterations 2
GAMG:  Solving for p, Initial residual = 0.00381822, Final residual = 0.000166869, No Iterations 2
time step continuity errors : sum local = 1.56056e-07, global = -3.39805e-08, cumulative = 9.91009e-07
smoothSolver:  Solving for omega, Initial residual = 2.28223e-06, Final residual = 6.78853e-08, No Iterations 2
smoothSolver:  Solving for k, Initial residual = 0.000765836, Final residual = 1.0481e-05, No Iterations 2
ExecutionTime = 27.95 s  ClockTime = 28 s

forces forcesFish write:
    Sum of forces
        Total    : (0.0193363 9.56057e-05 -3.93936e-06)
        Pressure : (0.00346441 9.58756e-05 -8.24246e-06)
        Viscous  : (0.0158719 -2.69875e-07 4.3031e-06)
    Sum of moments
        Total    : (7.8849e-09 -6.36167e-07 5.17853e-05)
        Pressure : (1.92967e-09 -5.3851e-07 4.84973e-05)
        Viscous  : (5.95523e-09 -9.76568e-08 3.28804e-06)
    writing force and moment files.

Time = 52

smoothSolver:  Solving for Ux, Initial residual = 2.54572e-05, Final residual = 8.62179e-07, No Iterations 2
smoothSolver:  Solving for Uy, Initial residual = 0.000962446, Final residual = 2.91515e-05, No Iterations 2
smoothSolver:  Solving for Uz, Initial residual = 0.000801156, Final residual = 2.33666e-05, No Iterations 2
GAMG:  Solving for p, Initial residual = 0.00359055, Final residual = 0.000138746, No Iterations 2
time step continuity errors : sum local = 1.29782e-07, global = -2.00127e-08, cumulative = 9.70997e-07
smoothSolver:  Solving for omega, Initial residual = 1.97552e-06, Final residual = 6.18372e-08, No Iterations 2
smoothSolver:  Solving for k, Initial residual = 0.000642524, Final residual = 8.86766e-06, No Iterations 2
ExecutionTime = 28.46 s  ClockTime = 28 s

forces forcesFish write:
    Sum of forces
        Total    : (0.0192603 9.06143e-05 -3.0356e-06)
        Pressure : (0.00345387 9.04919e-05 -7.33545e-06)
        Viscous  : (0.0158064 1.22346e-07 4.29984e-06)
    Sum of moments
        Total    : (-1.57044e-09 -8.26343e-07 5.02916e-05)
        Pressure : (-7.47845e-09 -7.22357e-07 4.69779e-05)
        Viscous  : (5.90801e-09 -1.03986e-07 3.31379e-06)
    writing force and moment files.

Time = 53

smoothSolver:  Solving for Ux, Initial residual = 2.47996e-05, Final residual = 8.30537e-07, No Iterations 2
smoothSolver:  Solving for Uy, Initial residual = 0.00091452, Final residual = 2.75468e-05, No Iterations 2
smoothSolver:  Solving for Uz, Initial residual = 0.000758114, Final residual = 2.23165e-05, No Iterations 2
GAMG:  Solving for p, Initial residual = 0.00339207, Final residual = 0.000115121, No Iterations 2
time step continuity errors : sum local = 1.07696e-07, global = -3.0343e-09, cumulative = 9.67962e-07
smoothSolver:  Solving for omega, Initial residual = 1.72542e-06, Final residual = 5.64829e-08, No Iterations 2
smoothSolver:  Solving for k, Initial residual = 0.000535562, Final residual = 7.50587e-06, No Iterations 2
ExecutionTime = 28.99 s  ClockTime = 29 s

forces forcesFish write:
    Sum of forces
        Total    : (0.0191865 8.49911e-05 -2.10305e-06)
        Pressure : (0.00344402 8.45156e-05 -6.39915e-06)
        Viscous  : (0.0157425 4.75534e-07 4.2961e-06)
    Sum of moments
        Total    : (-1.06243e-08 -1.02274e-06 4.87853e-05)
        Pressure : (-1.64973e-08 -9.12798e-07 4.54536e-05)
        Viscous  : (5.87297e-09 -1.0994e-07 3.33166e-06)
    writing force and moment files.

Time = 54

smoothSolver:  Solving for Ux, Initial residual = 2.39282e-05, Final residual = 7.97958e-07, No Iterations 2
smoothSolver:  Solving for Uy, Initial residual = 0.000872018, Final residual = 2.61996e-05, No Iterations 2
smoothSolver:  Solving for Uz, Initial residual = 0.000726241, Final residual = 2.17671e-05, No Iterations 2
GAMG:  Solving for p, Initial residual = 0.00322505, Final residual = 0.000105405, No Iterations 2
time step continuity errors : sum local = 9.86196e-08, global = 1.51402e-08, cumulative = 9.83103e-07
smoothSolver:  Solving for omega, Initial residual = 1.52141e-06, Final residual = 5.17017e-08, No Iterations 2
smoothSolver:  Solving for k, Initial residual = 0.000443808, Final residual = 6.35918e-06, No Iterations 2
ExecutionTime = 29.48 s  ClockTime = 29 s

forces forcesFish write:
    Sum of forces
        Total    : (0.019115 7.93391e-05 -1.44473e-06)
        Pressure : (0.00343485 7.85459e-05 -5.73637e-06)
        Viscous  : (0.0156802 7.9319e-07 4.29165e-06)
    Sum of moments
        Total    : (-1.781e-08 -1.14957e-06 4.73619e-05)
        Pressure : (-2.36589e-08 -1.03385e-06 4.40196e-05)
        Viscous  : (5.84887e-09 -1.1572e-07 3.34233e-06)
    writing force and moment files.

Time = 55

smoothSolver:  Solving for Ux, Initial residual = 2.28721e-05, Final residual = 7.64469e-07, No Iterations 2
smoothSolver:  Solving for Uy, Initial residual = 0.000827604, Final residual = 2.49249e-05, No Iterations 2
smoothSolver:  Solving for Uz, Initial residual = 0.000701352, Final residual = 2.14515e-05, No Iterations 2
GAMG:  Solving for p, Initial residual = 0.003089, Final residual = 0.000116754, No Iterations 2
time step continuity errors : sum local = 1.09267e-07, global = 3.03935e-08, cumulative = 1.0135e-06
smoothSolver:  Solving for omega, Initial residual = 1.35394e-06, Final residual = 4.73931e-08, No Iterations 2
smoothSolver:  Solving for k, Initial residual = 0.000366034, Final residual = 5.39648e-06, No Iterations 2
ExecutionTime = 30 s  ClockTime = 30 s

forces forcesFish write:
    Sum of forces
        Total    : (0.0190458 7.4146e-05 -1.25189e-06)
        Pressure : (0.00342636 7.30658e-05 -5.53808e-06)
        Viscous  : (0.0156195 1.08024e-06 4.2862e-06)
    Sum of moments
        Total    : (-2.23626e-08 -1.1603e-06 4.60958e-05)
        Pressure : (-2.81968e-08 -1.0391e-06 4.27494e-05)
        Viscous  : (5.83422e-09 -1.21203e-07 3.34642e-06)
    writing force and moment files.

Time = 56

smoothSolver:  Solving for Ux, Initial residual = 2.15471e-05, Final residual = 7.28933e-07, No Iterations 2
smoothSolver:  Solving for Uy, Initial residual = 0.000779787, Final residual = 2.35938e-05, No Iterations 2
smoothSolver:  Solving for Uz, Initial residual = 0.000678219, Final residual = 2.1082e-05, No Iterations 2
GAMG:  Solving for p, Initial residual = 0.00296412, Final residual = 0.000128349, No Iterations 2
time step continuity errors : sum local = 1.20193e-07, global = 3.80199e-08, cumulative = 1.05152e-06
smoothSolver:  Solving for omega, Initial residual = 1.21565e-06, Final residual = 4.34915e-08, No Iterations 2
smoothSolver:  Solving for k, Initial residual = 0.000300765, Final residual = 4.58857e-06, No Iterations 2
ExecutionTime = 30.52 s  ClockTime = 30 s

forces forcesFish write:
    Sum of forces
        Total    : (0.018979 6.97338e-05 -1.59809e-06)
        Pressure : (0.00341856 6.83923e-05 -5.8782e-06)
        Viscous  : (0.0155604 1.34151e-06 4.28011e-06)
    Sum of moments
        Total    : (-2.41247e-08 -1.03874e-06 4.5032e-05)
        Pressure : (-2.99544e-08 -9.12233e-07 4.16872e-05)
        Viscous  : (5.82971e-09 -1.26511e-07 3.3448e-06)
    writing force and moment files.

Time = 57

smoothSolver:  Solving for Ux, Initial residual = 1.98058e-05, Final residual = 6.89501e-07, No Iterations 2
smoothSolver:  Solving for Uy, Initial residual = 0.000729278, Final residual = 2.21607e-05, No Iterations 2
smoothSolver:  Solving for Uz, Initial residual = 0.000653697, Final residual = 2.05062e-05, No Iterations 2
GAMG:  Solving for p, Initial residual = 0.00284673, Final residual = 0.000133383, No Iterations 2
time step continuity errors : sum local = 1.25058e-07, global = 3.6188e-08, cumulative = 1.0877e-06
smoothSolver:  Solving for omega, Initial residual = 1.1006e-06, Final residual = 3.99557e-08, No Iterations 2
smoothSolver:  Solving for k, Initial residual = 0.000246483, Final residual = 3.91022e-06, No Iterations 2
ExecutionTime = 31.05 s  ClockTime = 31 s

forces forcesFish write:
    Sum of forces
        Total    : (0.0189145 6.63149e-05 -2.46552e-06)
        Pressure : (0.00341151 6.47334e-05 -6.73929e-06)
        Viscous  : (0.015503 1.58145e-06 4.27377e-06)
    Sum of moments
        Total    : (-2.33998e-08 -7.92723e-07 4.41999e-05)
        Pressure : (-2.92318e-08 -6.6112e-07 4.08619e-05)
        Viscous  : (5.83201e-09 -1.31603e-07 3.33807e-06)
    writing force and moment files.

Time = 58

smoothSolver:  Solving for Ux, Initial residual = 1.75987e-05, Final residual = 6.45301e-07, No Iterations 2
smoothSolver:  Solving for Uy, Initial residual = 0.000676365, Final residual = 2.06061e-05, No Iterations 2
smoothSolver:  Solving for Uz, Initial residual = 0.000627225, Final residual = 1.97441e-05, No Iterations 2
GAMG:  Solving for p, Initial residual = 0.00273096, Final residual = 0.000131247, No Iterations 2
time step continuity errors : sum local = 1.23295e-07, global = 3.26556e-08, cumulative = 1.12036e-06
smoothSolver:  Solving for omega, Initial residual = 1.00406e-06, Final residual = 3.67398e-08, No Iterations 2
smoothSolver:  Solving for k, Initial residual = 0.000201687, Final residual = 3.33964e-06, No Iterations 2
ExecutionTime = 31.57 s  ClockTime = 31 s

forces forcesFish write:
    Sum of forces
        Total    : (0.0188525 6.39593e-05 -3.74217e-06)
        Pressure : (0.00340528 6.2155e-05 -8.00985e-06)
        Viscous  : (0.0154473 1.80432e-06 4.26768e-06)
    Sum of moments
        Total    : (-2.09552e-08 -4.55139e-07 4.36053e-05)
        Pressure : (-2.67931e-08 -3.18496e-07 4.02785e-05)
        Viscous  : (5.83785e-09 -1.36643e-07 3.32681e-06)
    writing force and moment files.

Time = 59

smoothSolver:  Solving for Ux, Initial residual = 1.53098e-05, Final residual = 6.00513e-07, No Iterations 2
smoothSolver:  Solving for Uy, Initial residual = 0.000623064, Final residual = 1.89685e-05, No Iterations 2
smoothSolver:  Solving for Uz, Initial residual = 0.000598636, Final residual = 1.88142e-05, No Iterations 2
GAMG:  Solving for p, Initial residual = 0.00261528, Final residual = 0.000121904, No Iterations 2
time step continuity errors : sum local = 1.14788e-07, global = 3.25209e-08, cumulative = 1.15288e-06
smoothSolver:  Solving for omega, Initial residual = 9.21803e-07, Final residual = 3.37944e-08, No Iterations 2
smoothSolver:  Solving for k, Initial residual = 0.000164981, Final residual = 2.85878e-06, No Iterations 2
ExecutionTime = 32.08 s  ClockTime = 32 s

forces forcesFish write:
    Sum of forces
        Total    : (0.018793 6.24957e-05 -5.23385e-06)
        Pressure : (0.00339978 6.04822e-05 -9.49621e-06)
        Viscous  : (0.0153932 2.01353e-06 4.26235e-06)
    Sum of moments
        Total    : (-1.78383e-08 -7.71691e-08 4.32067e-05)
        Pressure : (-2.36867e-08 6.46054e-08 3.98948e-05)
        Viscous  : (5.84843e-09 -1.41775e-07 3.3119e-06)
    writing force and moment files.

Time = 60

smoothSolver:  Solving for Ux, Initial residual = 1.37704e-05, Final residual = 5.65959e-07, No Iterations 2
smoothSolver:  Solving for Uy, Initial residual = 0.0005755, Final residual = 1.74348e-05, No Iterations 2
smoothSolver:  Solving for Uz, Initial residual = 0.000567888, Final residual = 1.7773e-05, No Iterations 2
GAMG:  Solving for p, Initial residual = 0.00250641, Final residual = 0.000109755, No Iterations 2
time step continuity errors : sum local = 1.0357e-07, global = 3.16178e-08, cumulative = 1.1845e-06
smoothSolver:  Solving for omega, Initial residual = 8.50713e-07, Final residual = 3.10885e-08, No Iterations 2
smoothSolver:  Solving for k, Initial residual = 0.000135093, Final residual = 2.45278e-06, No Iterations 2
ExecutionTime = 32.57 s  ClockTime = 32 s

forces forcesFish write:
    Sum of forces
        Total    : (0.0187356 6.16126e-05 -6.73736e-06)
        Pressure : (0.00339481 5.94011e-05 -1.09956e-05)
        Viscous  : (0.0153408 2.21147e-06 4.25828e-06)
    Sum of moments
        Total    : (-1.49915e-08 2.91823e-07 4.29358e-05)
        Pressure : (-2.0853e-08 4.38862e-07 3.96417e-05)
        Viscous  : (5.86155e-09 -1.47039e-07 3.29413e-06)
    writing force and moment files.

Time = 61

smoothSolver:  Solving for Ux, Initial residual = 1.28587e-05, Final residual = 5.39944e-07, No Iterations 2
smoothSolver:  Solving for Uy, Initial residual = 0.000538419, Final residual = 1.61472e-05, No Iterations 2
smoothSolver:  Solving for Uz, Initial residual = 0.000536012, Final residual = 1.67279e-05, No Iterations 2
GAMG:  Solving for p, Initial residual = 0.00240467, Final residual = 9.67547e-05, No Iterations 2
time step continuity errors : sum local = 9.14513e-08, global = 2.63154e-08, cumulative = 1.21081e-06
smoothSolver:  Solving for omega, Initial residual = 7.8854e-07, Final residual = 2.85975e-08, No Iterations 2
smoothSolver:  Solving for k, Initial residual = 0.000110868, Final residual = 2.10896e-06, No Iterations 2
ExecutionTime = 33.11 s  ClockTime = 33 s

forces forcesFish write:
    Sum of forces
        Total    : (0.0186802 6.10226e-05 -8.1076e-06)
        Pressure : (0.00339018 5.86228e-05 -1.23633e-05)
        Viscous  : (0.01529 2.39981e-06 4.25574e-06)
    Sum of moments
        Total    : (-1.29919e-08 6.19759e-07 4.27316e-05)
        Pressure : (-1.88675e-08 7.72172e-07 3.94574e-05)
        Viscous  : (5.87557e-09 -1.52413e-07 3.27426e-06)
    writing force and moment files.

Time = 62

smoothSolver:  Solving for Ux, Initial residual = 1.21413e-05, Final residual = 5.16825e-07, No Iterations 2
smoothSolver:  Solving for Uy, Initial residual = 0.000505062, Final residual = 1.50963e-05, No Iterations 2
smoothSolver:  Solving for Uz, Initial residual = 0.000505347, Final residual = 1.58346e-05, No Iterations 2
GAMG:  Solving for p, Initial residual = 0.00231669, Final residual = 8.30933e-05, No Iterations 2
time step continuity errors : sum local = 7.86271e-08, global = 1.71114e-08, cumulative = 1.22793e-06
smoothSolver:  Solving for omega, Initial residual = 7.33327e-07, Final residual = 2.63144e-08, No Iterations 2
smoothSolver:  Solving for k, Initial residual = 9.12954e-05, Final residual = 1.81688e-06, No Iterations 2
ExecutionTime = 33.66 s  ClockTime = 34 s

forces forcesFish write:
    Sum of forces
        Total    : (0.0186266 6.05273e-05 -9.26441e-06)
        Pressure : (0.00338579 5.79475e-05 -1.35191e-05)
        Viscous  : (0.0152408 2.57981e-06 4.25473e-06)
    Sum of moments
        Total    : (-1.20611e-08 8.91441e-07 4.25539e-05)
        Pressure : (-1.79512e-08 1.04928e-06 3.93008e-05)
        Viscous  : (5.89018e-09 -1.57841e-07 3.25304e-06)
    writing force and moment files.

Time = 63

smoothSolver:  Solving for Ux, Initial residual = 1.15248e-05, Final residual = 4.95328e-07, No Iterations 2
smoothSolver:  Solving for Uy, Initial residual = 0.00047623, Final residual = 1.42882e-05, No Iterations 2
smoothSolver:  Solving for Uz, Initial residual = 0.000478799, Final residual = 1.51463e-05, No Iterations 2
GAMG:  Solving for p, Initial residual = 0.00224014, Final residual = 7.12237e-05, No Iterations 2
time step continuity errors : sum local = 6.74443e-08, global = 5.59068e-09, cumulative = 1.23352e-06
smoothSolver:  Solving for omega, Initial residual = 6.83488e-07, Final residual = 2.4217e-08, No Iterations 2
smoothSolver:  Solving for k, Initial residual = 7.55125e-05, Final residual = 1.56795e-06, No Iterations 2
ExecutionTime = 34.17 s  ClockTime = 34 s

forces forcesFish write:
    Sum of forces
        Total    : (0.0185749 6.00085e-05 -1.01754e-05)
        Pressure : (0.00338159 5.72561e-05 -1.44306e-05)
        Viscous  : (0.0151933 2.75232e-06 4.2552e-06)
    Sum of moments
        Total    : (-1.21928e-08 1.10294e-06 4.23807e-05)
        Pressure : (-1.80969e-08 1.26627e-06 3.91496e-05)
[...]
    writing force and moment files.

Time = 147

smoothSolver:  Solving for Ux, Initial residual = 4.90703e-07, Final residual = 9.19191e-09, No Iterations 2
smoothSolver:  Solving for Uy, Initial residual = 1.80974e-05, Final residual = 5.22546e-07, No Iterations 2
smoothSolver:  Solving for Uz, Initial residual = 2.41477e-05, Final residual = 6.85573e-07, No Iterations 2
GAMG:  Solving for p, Initial residual = 8.21495e-05, Final residual = 4.04928e-06, No Iterations 2
time step continuity errors : sum local = 3.95601e-09, global = -1.4178e-09, cumulative = 1.08796e-06
smoothSolver:  Solving for omega, Initial residual = 1.06297e-08, Final residual = 1.88944e-09, No Iterations 1
smoothSolver:  Solving for k, Initial residual = 2.26437e-08, Final residual = 2.9231e-09, No Iterations 1
ExecutionTime = 78.56 s  ClockTime = 78 s

forces forcesFish write:
    Sum of forces
        Total    : (0.01753 5.83518e-05 -2.40327e-05)
        Pressure : (0.00334984 5.09243e-05 -2.89442e-05)
        Viscous  : (0.0141802 7.42745e-06 4.91151e-06)
    Sum of moments
        Total    : (-3.68922e-08 4.46662e-06 4.46406e-05)
        Pressure : (-4.15152e-08 4.94304e-06 4.14891e-05)
        Viscous  : (4.623e-09 -4.7642e-07 3.15146e-06)
    writing force and moment files.

Time = 148

smoothSolver:  Solving for Ux, Initial residual = 4.77862e-07, Final residual = 8.814e-09, No Iterations 2
smoothSolver:  Solving for Uy, Initial residual = 1.7149e-05, Final residual = 4.91478e-07, No Iterations 2
smoothSolver:  Solving for Uz, Initial residual = 2.28504e-05, Final residual = 6.44415e-07, No Iterations 2
GAMG:  Solving for p, Initial residual = 7.73419e-05, Final residual = 3.66783e-06, No Iterations 2
time step continuity errors : sum local = 3.58345e-09, global = -1.21844e-09, cumulative = 1.08674e-06
smoothSolver:  Solving for omega, Initial residual = 8.09152e-09, Final residual = 8.09152e-09, No Iterations 0
smoothSolver:  Solving for k, Initial residual = 2.17039e-08, Final residual = 2.77786e-09, No Iterations 1
ExecutionTime = 79.07 s  ClockTime = 79 s

forces forcesFish write:
    Sum of forces
        Total    : (0.0175296 5.83748e-05 -2.40385e-05)
        Pressure : (0.00334983 5.09453e-05 -2.89501e-05)
        Viscous  : (0.0141798 7.42952e-06 4.91163e-06)
    Sum of moments
        Total    : (-3.6865e-08 4.46861e-06 4.46493e-05)
        Pressure : (-4.14884e-08 4.94514e-06 4.14978e-05)
        Viscous  : (4.62341e-09 -4.76531e-07 3.1515e-06)
    writing force and moment files.

Time = 149

smoothSolver:  Solving for Ux, Initial residual = 4.64221e-07, Final residual = 8.44565e-09, No Iterations 2
smoothSolver:  Solving for Uy, Initial residual = 1.62444e-05, Final residual = 4.62536e-07, No Iterations 2
smoothSolver:  Solving for Uz, Initial residual = 2.16187e-05, Final residual = 6.0649e-07, No Iterations 2
GAMG:  Solving for p, Initial residual = 7.26661e-05, Final residual = 3.23041e-06, No Iterations 2
time step continuity errors : sum local = 3.15619e-09, global = -9.60109e-10, cumulative = 1.08578e-06
smoothSolver:  Solving for omega, Initial residual = 9.10107e-09, Final residual = 9.10107e-09, No Iterations 0
smoothSolver:  Solving for k, Initial residual = 2.10527e-08, Final residual = 2.67439e-09, No Iterations 1
ExecutionTime = 79.57 s  ClockTime = 79 s

forces forcesFish write:
    Sum of forces
        Total    : (0.0175292 5.83962e-05 -2.40433e-05)
        Pressure : (0.00334982 5.09647e-05 -2.8955e-05)
        Viscous  : (0.0141794 7.43148e-06 4.91172e-06)
    Sum of moments
        Total    : (-3.68398e-08 4.47029e-06 4.46575e-05)
        Pressure : (-4.14635e-08 4.94692e-06 4.15059e-05)
        Viscous  : (4.62372e-09 -4.76628e-07 3.15153e-06)
    writing force and moment files.

Time = 150

smoothSolver:  Solving for Ux, Initial residual = 4.48616e-07, Final residual = 8.07018e-09, No Iterations 2
smoothSolver:  Solving for Uy, Initial residual = 1.53758e-05, Final residual = 4.35008e-07, No Iterations 2
smoothSolver:  Solving for Uz, Initial residual = 2.04331e-05, Final residual = 5.70286e-07, No Iterations 2
GAMG:  Solving for p, Initial residual = 6.8164e-05, Final residual = 2.79631e-06, No Iterations 2
time step continuity errors : sum local = 2.73215e-09, global = -6.49805e-10, cumulative = 1.08513e-06
smoothSolver:  Solving for omega, Initial residual = 1.00619e-08, Final residual = 1.80954e-09, No Iterations 1
smoothSolver:  Solving for k, Initial residual = 1.93825e-08, Final residual = 2.46463e-09, No Iterations 1
ExecutionTime = 80.1 s  ClockTime = 80 s

forces forcesFish write:
    Sum of forces
        Total    : (0.0175288 5.84162e-05 -2.40474e-05)
        Pressure : (0.00334981 5.09829e-05 -2.89592e-05)
        Viscous  : (0.014179 7.43332e-06 4.91179e-06)
    Sum of moments
        Total    : (-3.68154e-08 4.47179e-06 4.4665e-05)
        Pressure : (-4.14393e-08 4.9485e-06 4.15135e-05)
        Viscous  : (4.62393e-09 -4.76712e-07 3.15157e-06)
    writing force and moment files.

Time = 151

smoothSolver:  Solving for Ux, Initial residual = 4.30928e-07, Final residual = 7.68262e-09, No Iterations 2
smoothSolver:  Solving for Uy, Initial residual = 1.4536e-05, Final residual = 4.08264e-07, No Iterations 2
smoothSolver:  Solving for Uz, Initial residual = 1.92804e-05, Final residual = 5.34543e-07, No Iterations 2
GAMG:  Solving for p, Initial residual = 6.38984e-05, Final residual = 2.41785e-06, No Iterations 2
time step continuity errors : sum local = 2.36247e-09, global = -3.04345e-10, cumulative = 1.08483e-06
smoothSolver:  Solving for omega, Initial residual = 7.59661e-09, Final residual = 7.59661e-09, No Iterations 0
smoothSolver:  Solving for k, Initial residual = 1.85438e-08, Final residual = 2.34083e-09, No Iterations 1
ExecutionTime = 80.6 s  ClockTime = 80 s

forces forcesFish write:
    Sum of forces
        Total    : (0.0175285 5.84351e-05 -2.40513e-05)
        Pressure : (0.0033498 5.10001e-05 -2.89632e-05)
        Viscous  : (0.0141787 7.43506e-06 4.91185e-06)
    Sum of moments
        Total    : (-3.67911e-08 4.47319e-06 4.46722e-05)
        Pressure : (-4.14152e-08 4.94997e-06 4.15206e-05)
        Viscous  : (4.62408e-09 -4.76784e-07 3.1516e-06)
    writing force and moment files.

Time = 152

smoothSolver:  Solving for Ux, Initial residual = 4.112e-07, Final residual = 7.28302e-09, No Iterations 2
smoothSolver:  Solving for Uy, Initial residual = 1.37369e-05, Final residual = 3.83771e-07, No Iterations 2
smoothSolver:  Solving for Uz, Initial residual = 1.81979e-05, Final residual = 5.02367e-07, No Iterations 2
GAMG:  Solving for p, Initial residual = 5.99868e-05, Final residual = 2.13345e-06, No Iterations 2
time step continuity errors : sum local = 2.08466e-09, global = 5.43233e-11, cumulative = 1.08488e-06
smoothSolver:  Solving for omega, Initial residual = 8.42313e-09, Final residual = 8.42313e-09, No Iterations 0
smoothSolver:  Solving for k, Initial residual = 1.79678e-08, Final residual = 2.25222e-09, No Iterations 1
ExecutionTime = 81.17 s  ClockTime = 81 s

forces forcesFish write:
    Sum of forces
        Total    : (0.0175282 5.84531e-05 -2.40551e-05)
        Pressure : (0.00334979 5.10164e-05 -2.8967e-05)
        Viscous  : (0.0141784 7.43671e-06 4.91189e-06)
    Sum of moments
        Total    : (-3.67667e-08 4.47453e-06 4.4679e-05)
        Pressure : (-4.13909e-08 4.95138e-06 4.15274e-05)
        Viscous  : (4.62416e-09 -4.76847e-07 3.15164e-06)
    writing force and moment files.

Time = 153

smoothSolver:  Solving for Ux, Initial residual = 3.90111e-07, Final residual = 6.87763e-09, No Iterations 2
smoothSolver:  Solving for Uy, Initial residual = 1.29716e-05, Final residual = 3.6081e-07, No Iterations 2
smoothSolver:  Solving for Uz, Initial residual = 1.71691e-05, Final residual = 4.72313e-07, No Iterations 2
GAMG:  Solving for p, Initial residual = 5.6461e-05, Final residual = 1.95869e-06, No Iterations 2
time step continuity errors : sum local = 1.91398e-09, global = 3.83117e-10, cumulative = 1.08526e-06
smoothSolver:  Solving for omega, Initial residual = 9.20669e-09, Final residual = 9.20669e-09, No Iterations 0
smoothSolver:  Solving for k, Initial residual = 1.74209e-08, Final residual = 2.16861e-09, No Iterations 1
ExecutionTime = 81.71 s  ClockTime = 82 s

forces forcesFish write:
    Sum of forces
        Total    : (0.0175279 5.84703e-05 -2.40588e-05)
        Pressure : (0.00334978 5.1032e-05 -2.89707e-05)
        Viscous  : (0.0141781 7.43827e-06 4.91192e-06)
    Sum of moments
        Total    : (-3.67425e-08 4.47582e-06 4.46855e-05)
        Pressure : (-4.13666e-08 4.95272e-06 4.15338e-05)
        Viscous  : (4.62418e-09 -4.769e-07 3.15167e-06)
    writing force and moment files.

Time = 154

smoothSolver:  Solving for Ux, Initial residual = 3.67761e-07, Final residual = 6.4676e-09, No Iterations 2
smoothSolver:  Solving for Uy, Initial residual = 1.22405e-05, Final residual = 3.393e-07, No Iterations 2
smoothSolver:  Solving for Uz, Initial residual = 1.6194e-05, Final residual = 4.44242e-07, No Iterations 2
GAMG:  Solving for p, Initial residual = 5.32775e-05, Final residual = 1.88969e-06, No Iterations 2
time step continuity errors : sum local = 1.84662e-09, global = 6.52423e-10, cumulative = 1.08592e-06
smoothSolver:  Solving for omega, Initial residual = 9.9483e-09, Final residual = 9.9483e-09, No Iterations 0
smoothSolver:  Solving for k, Initial residual = 1.6888e-08, Final residual = 2.08856e-09, No Iterations 1
ExecutionTime = 82.21 s  ClockTime = 82 s

forces forcesFish write:
    Sum of forces
        Total    : (0.0175276 5.84865e-05 -2.40624e-05)
        Pressure : (0.00334977 5.10468e-05 -2.89743e-05)
        Viscous  : (0.0141778 7.43974e-06 4.91193e-06)
    Sum of moments
        Total    : (-3.6719e-08 4.47704e-06 4.46916e-05)
        Pressure : (-4.13431e-08 4.95398e-06 4.15399e-05)
        Viscous  : (4.62415e-09 -4.76946e-07 3.15171e-06)
    writing force and moment files.

Time = 155

smoothSolver:  Solving for Ux, Initial residual = 3.4417e-07, Final residual = 6.05289e-09, No Iterations 2
smoothSolver:  Solving for Uy, Initial residual = 1.15441e-05, Final residual = 3.19109e-07, No Iterations 2
smoothSolver:  Solving for Uz, Initial residual = 1.52699e-05, Final residual = 4.17935e-07, No Iterations 2
GAMG:  Solving for p, Initial residual = 5.03643e-05, Final residual = 2.03375e-06, No Iterations 2
time step continuity errors : sum local = 1.98748e-09, global = 8.34283e-10, cumulative = 1.08675e-06
smoothSolver:  Solving for omega, Initial residual = 1.06451e-08, Final residual = 1.86211e-09, No Iterations 1
smoothSolver:  Solving for k, Initial residual = 1.52948e-08, Final residual = 1.8908e-09, No Iterations 1
ExecutionTime = 82.69 s  ClockTime = 83 s

forces forcesFish write:
    Sum of forces
        Total    : (0.0175273 5.85019e-05 -2.40657e-05)
        Pressure : (0.00334976 5.10608e-05 -2.89776e-05)
        Viscous  : (0.0141776 7.44113e-06 4.91194e-06)
    Sum of moments
        Total    : (-3.66969e-08 4.47817e-06 4.46974e-05)
        Pressure : (-4.13209e-08 4.95515e-06 4.15456e-05)
        Viscous  : (4.62408e-09 -4.76985e-07 3.15174e-06)
    writing force and moment files.

Time = 156

smoothSolver:  Solving for Ux, Initial residual = 3.19378e-07, Final residual = 5.63295e-09, No Iterations 2
smoothSolver:  Solving for Uy, Initial residual = 1.08759e-05, Final residual = 2.99402e-07, No Iterations 2
smoothSolver:  Solving for Uz, Initial residual = 1.43774e-05, Final residual = 3.91775e-07, No Iterations 2
GAMG:  Solving for p, Initial residual = 4.76122e-05, Final residual = 2.13129e-06, No Iterations 2
time step continuity errors : sum local = 2.08291e-09, global = 9.2072e-10, cumulative = 1.08767e-06
smoothSolver:  Solving for omega, Initial residual = 7.57658e-09, Final residual = 7.57658e-09, No Iterations 0
smoothSolver:  Solving for k, Initial residual = 1.45157e-08, Final residual = 1.78411e-09, No Iterations 1
ExecutionTime = 83.17 s  ClockTime = 83 s

forces forcesFish write:
    Sum of forces
        Total    : (0.0175271 5.85165e-05 -2.40688e-05)
        Pressure : (0.00334976 5.1074e-05 -2.89807e-05)
        Viscous  : (0.0141773 7.44245e-06 4.91194e-06)
    Sum of moments
        Total    : (-3.66768e-08 4.47921e-06 4.47028e-05)
        Pressure : (-4.13008e-08 4.95622e-06 4.15511e-05)
        Viscous  : (4.62398e-09 -4.77018e-07 3.15178e-06)
    writing force and moment files.

Time = 157

smoothSolver:  Solving for Ux, Initial residual = 2.93237e-07, Final residual = 5.20705e-09, No Iterations 2
smoothSolver:  Solving for Uy, Initial residual = 1.02474e-05, Final residual = 2.81471e-07, No Iterations 2
smoothSolver:  Solving for Uz, Initial residual = 1.35476e-05, Final residual = 3.68552e-07, No Iterations 2
GAMG:  Solving for p, Initial residual = 4.49889e-05, Final residual = 2.14891e-06, No Iterations 2
time step continuity errors : sum local = 2.10022e-09, global = 9.25374e-10, cumulative = 1.0886e-06
smoothSolver:  Solving for omega, Initial residual = 8.16963e-09, Final residual = 8.16963e-09, No Iterations 0
smoothSolver:  Solving for k, Initial residual = 1.39756e-08, Final residual = 1.71078e-09, No Iterations 1
ExecutionTime = 83.66 s  ClockTime = 84 s

forces forcesFish write:
    Sum of forces
        Total    : (0.0175268 5.85301e-05 -2.40714e-05)
        Pressure : (0.00334975 5.10864e-05 -2.89833e-05)
        Viscous  : (0.0141771 7.44371e-06 4.91194e-06)
    Sum of moments
        Total    : (-3.66591e-08 4.48011e-06 4.4708e-05)
        Pressure : (-4.12829e-08 4.95716e-06 4.15562e-05)
        Viscous  : (4.62384e-09 -4.77045e-07 3.15181e-06)
    writing force and moment files.

Time = 158

smoothSolver:  Solving for Ux, Initial residual = 2.66594e-07, Final residual = 4.78283e-09, No Iterations 2
smoothSolver:  Solving for Uy, Initial residual = 9.64938e-06, Final residual = 2.64465e-07, No Iterations 2
smoothSolver:  Solving for Uz, Initial residual = 1.27571e-05, Final residual = 3.46544e-07, No Iterations 2
GAMG:  Solving for p, Initial residual = 4.2434e-05, Final residual = 2.08178e-06, No Iterations 2
time step continuity errors : sum local = 2.03471e-09, global = 8.75196e-10, cumulative = 1.08947e-06
smoothSolver:  Solving for omega, Initial residual = 8.72872e-09, Final residual = 8.72872e-09, No Iterations 0
smoothSolver:  Solving for k, Initial residual = 1.34554e-08, Final residual = 1.63967e-09, No Iterations 1
ExecutionTime = 84.15 s  ClockTime = 84 s

forces forcesFish write:
    Sum of forces
        Total    : (0.0175266 5.85427e-05 -2.40734e-05)
        Pressure : (0.00334974 5.10978e-05 -2.89854e-05)
        Viscous  : (0.0141769 7.44489e-06 4.91192e-06)
    Sum of moments
        Total    : (-3.6644e-08 4.48086e-06 4.47127e-05)
        Pressure : (-4.12677e-08 4.95793e-06 4.15609e-05)
        Viscous  : (4.62366e-09 -4.77068e-07 3.15185e-06)
    writing force and moment files.

Time = 159

smoothSolver:  Solving for Ux, Initial residual = 2.40699e-07, Final residual = 4.37404e-09, No Iterations 2
smoothSolver:  Solving for Uy, Initial residual = 9.07964e-06, Final residual = 2.48241e-07, No Iterations 2
smoothSolver:  Solving for Uz, Initial residual = 1.20021e-05, Final residual = 3.25495e-07, No Iterations 2
GAMG:  Solving for p, Initial residual = 3.99336e-05, Final residual = 1.93776e-06, No Iterations 2
time step continuity errors : sum local = 1.89403e-09, global = 7.90054e-10, cumulative = 1.09026e-06
smoothSolver:  Solving for omega, Initial residual = 9.25858e-09, Final residual = 9.25858e-09, No Iterations 0
smoothSolver:  Solving for k, Initial residual = 1.29433e-08, Final residual = 1.57045e-09, No Iterations 1
ExecutionTime = 84.63 s  ClockTime = 85 s

forces forcesFish write:
    Sum of forces
        Total    : (0.0175264 5.85542e-05 -2.40749e-05)
        Pressure : (0.00334974 5.11082e-05 -2.89868e-05)
        Viscous  : (0.0141767 7.446e-06 4.91191e-06)
    Sum of moments
        Total    : (-3.66316e-08 4.48145e-06 4.47171e-05)
        Pressure : (-4.12551e-08 4.95853e-06 4.15652e-05)
        Viscous  : (4.62345e-09 -4.77088e-07 3.15188e-06)
    writing force and moment files.

Time = 160

smoothSolver:  Solving for Ux, Initial residual = 2.16973e-07, Final residual = 3.9968e-09, No Iterations 2
smoothSolver:  Solving for Uy, Initial residual = 8.53681e-06, Final residual = 2.32719e-07, No Iterations 2
smoothSolver:  Solving for Uz, Initial residual = 1.12807e-05, Final residual = 3.05241e-07, No Iterations 2
GAMG:  Solving for p, Initial residual = 3.74862e-05, Final residual = 1.73819e-06, No Iterations 2
time step continuity errors : sum local = 1.69904e-09, global = 6.7394e-10, cumulative = 1.09094e-06
smoothSolver:  Solving for omega, Initial residual = 9.75632e-09, Final residual = 9.75632e-09, No Iterations 0
smoothSolver:  Solving for k, Initial residual = 1.24413e-08, Final residual = 1.50395e-09, No Iterations 1
ExecutionTime = 85.14 s  ClockTime = 85 s

forces forcesFish write:
    Sum of forces
        Total    : (0.0175262 5.85647e-05 -2.40758e-05)
        Pressure : (0.00334973 5.11176e-05 -2.89877e-05)
        Viscous  : (0.0141765 7.44703e-06 4.9119e-06)
    Sum of moments
        Total    : (-3.66213e-08 4.48188e-06 4.4721e-05)
        Pressure : (-4.12445e-08 4.95899e-06 4.15691e-05)
        Viscous  : (4.6232e-09 -4.77105e-07 3.15191e-06)
    writing force and moment files.

Time = 161

smoothSolver:  Solving for Ux, Initial residual = 1.96598e-07, Final residual = 3.66486e-09, No Iterations 2
smoothSolver:  Solving for Uy, Initial residual = 8.02248e-06, Final residual = 2.17923e-07, No Iterations 2
smoothSolver:  Solving for Uz, Initial residual = 1.05941e-05, Final residual = 2.85786e-07, No Iterations 2
GAMG:  Solving for p, Initial residual = 3.51035e-05, Final residual = 1.50712e-06, No Iterations 2
time step continuity errors : sum local = 1.47323e-09, global = 5.243e-10, cumulative = 1.09146e-06
smoothSolver:  Solving for omega, Initial residual = 1.02234e-08, Final residual = 1.80956e-09, No Iterations 1
smoothSolver:  Solving for k, Initial residual = 1.09444e-08, Final residual = 1.32069e-09, No Iterations 1
ExecutionTime = 85.63 s  ClockTime = 86 s

forces forcesFish write:
    Sum of forces
        Total    : (0.0175261 5.85743e-05 -2.40765e-05)
        Pressure : (0.00334973 5.11263e-05 -2.89884e-05)
        Viscous  : (0.0141763 7.44801e-06 4.91188e-06)
    Sum of moments
        Total    : (-3.66121e-08 4.48223e-06 4.47247e-05)
        Pressure : (-4.1235e-08 4.95935e-06 4.15727e-05)
        Viscous  : (4.62292e-09 -4.7712e-07 3.15194e-06)
    writing force and moment files.

Time = 162

smoothSolver:  Solving for Ux, Initial residual = 1.79935e-07, Final residual = 3.38336e-09, No Iterations 2
smoothSolver:  Solving for Uy, Initial residual = 7.53279e-06, Final residual = 2.03268e-07, No Iterations 2
smoothSolver:  Solving for Uz, Initial residual = 9.93042e-06, Final residual = 2.65945e-07, No Iterations 2
GAMG:  Solving for p, Initial residual = 3.27984e-05, Final residual = 1.26345e-06, No Iterations 2
time step continuity errors : sum local = 1.23508e-09, global = 3.43807e-10, cumulative = 1.0918e-06
smoothSolver:  Solving for omega, Initial residual = 7.16861e-09, Final residual = 7.16861e-09, No Iterations 0
smoothSolver:  Solving for k, Initial residual = 1.02521e-08, Final residual = 1.23516e-09, No Iterations 1
ExecutionTime = 86.09 s  ClockTime = 86 s


SIMPLE solution converged in 162 iterations

forces forcesFish write:
    Sum of forces
        Total    : (0.0175259 5.85833e-05 -2.40771e-05)
        Pressure : (0.00334973 5.11344e-05 -2.8989e-05)
        Viscous  : (0.0141762 7.44892e-06 4.91187e-06)
    Sum of moments
        Total    : (-3.66032e-08 4.48256e-06 4.47281e-05)
        Pressure : (-4.12259e-08 4.95969e-06 4.15761e-05)
        Viscous  : (4.62263e-09 -4.77134e-07 3.15196e-06)
    writing force and moment files.

End

