/*---------------------------------------------------------------------------*\
| =========                 |                                                 |
| \\      /  F ield         | OpenFOAM: The Open Source CFD Toolbox           |
|  \\    /   O peration     | Version:  2512                                  |
|   \\  /    A nd           | Website:  www.openfoam.com                      |
|    \\/     M anipulation  |                                                 |
\*---------------------------------------------------------------------------*/
Build  : _bd2b6720-20260127 OPENFOAM=2512 version=2512
Arch   : "LSB;label=32;scalar=64"
Exec   : simpleFoam
Date   : Mar 29 2026
Time   : 12:12:36
Host   : mathias-laptop
PID    : 13522
I/O    : uncollated
Case   : /home/mat/OpenFOAM/mat-run/speed_sweep_runs/U_1p2
nProcs : 1
trapFpe: Floating point exception trapping enabled (FOAM_SIGFPE).
memory pool : not available
fileModificationChecking : Monitoring run-time modified files using timeStampMaster (fileModificationSkew 5, maxFileModificationPolls 20)
allowSystemOperations : Allowing user-supplied system call operations

// * * * * * * * * * * * * * * * * * * * * * * * * * * * * * * * * * * * * * //
Create time

Create mesh for time = 0


SIMPLE: convergence criteria
    field p	 tolerance 0.0001
    field U	 tolerance 1e-05
    field "(k|omega)"	 tolerance 1e-05

Reading field p

Reading field U

Reading/calculating face flux field phi

Selecting incompressible transport model Newtonian
Selecting turbulence model type RAS
Selecting RAS turbulence model kOmegaSST
Selecting patchDistMethod meshWave
RAS
{
    RASModel        kOmegaSST;
    turbulence      on;
    printCoeffs     on;
    alphaK1         0.85;
    alphaK2         1;
    alphaOmega1     0.5;
    alphaOmega2     0.856;
    gamma1          0.555556;
    gamma2          0.44;
    beta1           0.075;
    beta2           0.0828;
    betaStar        0.09;
    a1              0.31;
    b1              1;
    c1              10;
    F3              false;
    decayControl    false;
    kInf            0;
    omegaInf        0;
}

No MRF models present

No finite volume options present

Starting time loop

forces forcesFish:
    rho: rhoInf
    Freestream density (rhoInf) set to 1000
    Not including porosity effects

Time = 1

smoothSolver:  Solving for Ux, Initial residual = 1, Final residual = 0.0313276, No Iterations 2
smoothSolver:  Solving for Uy, Initial residual = 1, Final residual = 0.0921985, No Iterations 2
smoothSolver:  Solving for Uz, Initial residual = 1, Final residual = 0.092502, No Iterations 2
GAMG:  Solving for p, Initial residual = 1, Final residual = 0.0520817, No Iterations 5
time step continuity errors : sum local = 0.000745757, global = 9.67464e-05, cumulative = 9.67464e-05
smoothSolver:  Solving for omega, Initial residual = 0.00744553, Final residual = 0.000405184, No Iterations 2
smoothSolver:  Solving for k, Initial residual = 1, Final residual = 0.0153814, No Iterations 2
ExecutionTime = 4.81 s  ClockTime = 5 s

forces forcesFish write:
    Sum of forces
        Total    : (1.68485 -0.000391504 -0.0017846)
        Pressure : (1.4015 -0.000389792 -0.00178133)
        Viscous  : (0.283354 -1.71148e-06 -3.2674e-06)
    Sum of moments
        Total    : (2.1943e-07 0.000357156 0.000153659)
        Pressure : (2.20723e-07 0.000355582 0.000154819)
        Viscous  : (-1.29326e-09 1.57393e-06 -1.16027e-06)
    writing force and moment files.

Time = 2

smoothSolver:  Solving for Ux, Initial residual = 0.169177, Final residual = 0.00865567, No Iterations 2
smoothSolver:  Solving for Uy, Initial residual = 0.416646, Final residual = 0.0369646, No Iterations 2
smoothSolver:  Solving for Uz, Initial residual = 0.416028, Final residual = 0.0369093, No Iterations 2
GAMG:  Solving for p, Initial residual = 0.185069, Final residual = 0.0111416, No Iterations 3
time step continuity errors : sum local = 0.00127447, global = -0.000210886, cumulative = -0.00011414
smoothSolver:  Solving for omega, Initial residual = 0.000844145, Final residual = 3.38348e-05, No Iterations 2
smoothSolver:  Solving for k, Initial residual = 0.137665, Final residual = 0.012953, No Iterations 1
ExecutionTime = 6.05 s  ClockTime = 6 s

forces forcesFish write:
    Sum of forces
        Total    : (1.81568 -0.000737726 -0.00232538)
        Pressure : (1.5469 -0.00073826 -0.00231927)
        Viscous  : (0.268781 5.3405e-07 -6.11248e-06)
    Sum of moments
        Total    : (2.16655e-07 0.000554153 1.73259e-05)
        Pressure : (2.24853e-07 0.000551914 1.85313e-05)
        Viscous  : (-8.19754e-09 2.23922e-06 -1.20539e-06)
    writing force and moment files.

Time = 3

smoothSolver:  Solving for Ux, Initial residual = 0.0446441, Final residual = 0.00215522, No Iterations 2
smoothSolver:  Solving for Uy, Initial residual = 0.262454, Final residual = 0.0220118, No Iterations 2
smoothSolver:  Solving for Uz, Initial residual = 0.260867, Final residual = 0.021918, No Iterations 2
GAMG:  Solving for p, Initial residual = 0.310528, Final residual = 0.0151661, No Iterations 3
time step continuity errors : sum local = 0.00186861, global = 9.4354e-05, cumulative = -1.97859e-05
smoothSolver:  Solving for omega, Initial residual = 0.000587192, Final residual = 3.06505e-05, No Iterations 2
smoothSolver:  Solving for k, Initial residual = 0.0643894, Final residual = 0.00617974, No Iterations 1
ExecutionTime = 7.33 s  ClockTime = 7 s

forces forcesFish write:
    Sum of forces
        Total    : (1.56194 -0.000627408 -0.000495377)
        Pressure : (1.30465 -0.000629427 -0.000489533)
        Viscous  : (0.25729 2.01931e-06 -5.84428e-06)
    Sum of moments
        Total    : (1.7818e-07 0.00030683 7.78723e-05)
        Pressure : (1.88647e-07 0.000304455 7.94213e-05)
        Viscous  : (-1.04665e-08 2.37527e-06 -1.549e-06)
    writing force and moment files.

Time = 4

smoothSolver:  Solving for Ux, Initial residual = 0.0247975, Final residual = 0.00111385, No Iterations 2
smoothSolver:  Solving for Uy, Initial residual = 0.164734, Final residual = 0.0131515, No Iterations 2
smoothSolver:  Solving for Uz, Initial residual = 0.16441, Final residual = 0.0131472, No Iterations 2
GAMG:  Solving for p, Initial residual = 0.430937, Final residual = 0.0289904, No Iterations 3
time step continuity errors : sum local = 0.00328328, global = 0.000420761, cumulative = 0.000400975
smoothSolver:  Solving for omega, Initial residual = 0.000543785, Final residual = 3.06668e-05, No Iterations 2
smoothSolver:  Solving for k, Initial residual = 0.0401396, Final residual = 0.00386316, No Iterations 1
ExecutionTime = 8.6 s  ClockTime = 9 s

forces forcesFish write:
    Sum of forces
        Total    : (1.11924 -0.000163318 0.00228423)
        Pressure : (0.871234 -0.00016484 0.00228845)
        Viscous  : (0.248006 1.52151e-06 -4.21343e-06)
    Sum of moments
        Total    : (1.13509e-07 -0.000187508 0.000197292)
        Pressure : (1.17091e-07 -0.000189444 0.000199088)
        Viscous  : (-3.58123e-09 1.93638e-06 -1.7958e-06)
    writing force and moment files.

Time = 5

smoothSolver:  Solving for Ux, Initial residual = 0.0157485, Final residual = 0.000606108, No Iterations 2
smoothSolver:  Solving for Uy, Initial residual = 0.092557, Final residual = 0.00690566, No Iterations 2
smoothSolver:  Solving for Uz, Initial residual = 0.0937639, Final residual = 0.00696945, No Iterations 2
GAMG:  Solving for p, Initial residual = 0.456093, Final residual = 0.0370876, No Iterations 3
time step continuity errors : sum local = 0.00382171, global = 0.000660458, cumulative = 0.00106143
smoothSolver:  Solving for omega, Initial residual = 0.000480021, Final residual = 2.70619e-05, No Iterations 2
smoothSolver:  Solving for k, Initial residual = 0.0285464, Final residual = 0.00271824, No Iterations 1
ExecutionTime = 9.91 s  ClockTime = 10 s

forces forcesFish write:
    Sum of forces
        Total    : (0.646153 0.000450848 0.00444151)
        Pressure : (0.405578 0.000451981 0.00444334)
        Viscous  : (0.240575 -1.1331e-06 -1.82554e-06)
    Sum of moments
        Total    : (3.52346e-08 -0.000660575 0.000281944)
        Pressure : (2.72467e-08 -0.000661559 0.000284018)
        Viscous  : (7.98797e-09 9.83335e-07 -2.07405e-06)
    writing force and moment files.

Time = 6

smoothSolver:  Solving for Ux, Initial residual = 0.0100202, Final residual = 0.000304363, No Iterations 2
smoothSolver:  Solving for Uy, Initial residual = 0.0544547, Final residual = 0.0022686, No Iterations 2
smoothSolver:  Solving for Uz, Initial residual = 0.054643, Final residual = 0.00230978, No Iterations 2
GAMG:  Solving for p, Initial residual = 0.217097, Final residual = 0.0192698, No Iterations 3
time step continuity errors : sum local = 0.00335945, global = 0.000629592, cumulative = 0.00169102
smoothSolver:  Solving for omega, Initial residual = 0.000402778, Final residual = 2.19422e-05, No Iterations 2
smoothSolver:  Solving for k, Initial residual = 0.0220508, Final residual = 0.00208168, No Iterations 1
ExecutionTime = 11.19 s  ClockTime = 11 s

forces forcesFish write:
    Sum of forces
        Total    : (0.255505 0.00103437 0.00490915)
        Pressure : (0.020755 0.00103899 0.0049089)
        Viscous  : (0.23475 -4.62041e-06 2.48813e-07)
    Sum of moments
        Total    : (-3.5867e-08 -0.000931054 0.000293638)
        Pressure : (-5.4798e-08 -0.000930962 0.000295844)
        Viscous  : (1.89311e-08 -9.18445e-08 -2.20684e-06)
    writing force and moment files.

Time = 7

smoothSolver:  Solving for Ux, Initial residual = 0.00630685, Final residual = 0.000203635, No Iterations 2
smoothSolver:  Solving for Uy, Initial residual = 0.0701409, Final residual = 0.00373704, No Iterations 2
smoothSolver:  Solving for Uz, Initial residual = 0.0679629, Final residual = 0.00361833, No Iterations 2
GAMG:  Solving for p, Initial residual = 0.118611, Final residual = 0.00936297, No Iterations 3
time step continuity errors : sum local = 0.00234791, global = 0.000243984, cumulative = 0.00193501
smoothSolver:  Solving for omega, Initial residual = 0.000335509, Final residual = 1.73565e-05, No Iterations 2
smoothSolver:  Solving for k, Initial residual = 0.0181239, Final residual = 0.00172021, No Iterations 1
ExecutionTime = 12.47 s  ClockTime = 13 s

forces forcesFish write:
    Sum of forces
        Total    : (0.00623982 0.0013658 0.00345315)
        Pressure : (-0.223974 0.00137337 0.00345196)
        Viscous  : (0.230214 -7.57081e-06 1.18239e-06)
    Sum of moments
        Total    : (-7.94563e-08 -0.000904629 0.00022602)
        Pressure : (-1.05998e-07 -0.000903695 0.000228028)
        Viscous  : (2.65419e-08 -9.3358e-07 -2.00778e-06)
    writing force and moment files.

Time = 8

smoothSolver:  Solving for Ux, Initial residual = 0.00667958, Final residual = 0.00024729, No Iterations 2
smoothSolver:  Solving for Uy, Initial residual = 0.0985925, Final residual = 0.00627557, No Iterations 2
smoothSolver:  Solving for Uz, Initial residual = 0.0964211, Final residual = 0.00614333, No Iterations 2
GAMG:  Solving for p, Initial residual = 0.0972671, Final residual = 0.00834288, No Iterations 2
time step continuity errors : sum local = 0.00266616, global = 0.000529158, cumulative = 0.00246417
smoothSolver:  Solving for omega, Initial residual = 0.000284046, Final residual = 1.39592e-05, No Iterations 2
smoothSolver:  Solving for k, Initial residual = 0.01551, Final residual = 0.0014972, No Iterations 1
ExecutionTime = 13.73 s  ClockTime = 14 s

forces forcesFish write:
    Sum of forces
        Total    : (-0.0832873 0.00172244 0.00194198)
        Pressure : (-0.309708 0.00173154 0.00194065)
        Viscous  : (0.22642 -9.10762e-06 1.33678e-06)
    Sum of moments
        Total    : (-9.27944e-08 -0.000730069 0.000261892)
        Pressure : (-1.22937e-07 -0.000728664 0.000263415)
        Viscous  : (3.01421e-08 -1.40444e-06 -1.5236e-06)
    writing force and moment files.

Time = 9

smoothSolver:  Solving for Ux, Initial residual = 0.00680682, Final residual = 0.000256477, No Iterations 2
smoothSolver:  Solving for Uy, Initial residual = 0.103665, Final residual = 0.00681307, No Iterations 2
smoothSolver:  Solving for Uz, Initial residual = 0.103029, Final residual = 0.00673471, No Iterations 2
GAMG:  Solving for p, Initial residual = 0.111442, Final residual = 0.009711, No Iterations 2
time step continuity errors : sum local = 0.00326284, global = 0.000529166, cumulative = 0.00299333
smoothSolver:  Solving for omega, Initial residual = 0.000238646, Final residual = 1.14005e-05, No Iterations 2
smoothSolver:  Solving for k, Initial residual = 0.013635, Final residual = 0.00133393, No Iterations 1
ExecutionTime = 14.94 s  ClockTime = 15 s

forces forcesFish write:
    Sum of forces
        Total    : (-0.0641536 0.00194379 5.05587e-05)
        Pressure : (-0.287122 0.00195293 4.99665e-05)
        Viscous  : (0.222968 -9.13183e-06 5.92157e-07)
    Sum of moments
        Total    : (-8.56893e-08 -0.000438181 0.000248094)
        Pressure : (-1.15446e-07 -0.000436815 0.000249089)
        Viscous  : (2.97563e-08 -1.36647e-06 -9.95358e-07)
    writing force and moment files.

Time = 10

smoothSolver:  Solving for Ux, Initial residual = 0.00623767, Final residual = 0.000227509, No Iterations 2
smoothSolver:  Solving for Uy, Initial residual = 0.0878724, Final residual = 0.00576419, No Iterations 2
smoothSolver:  Solving for Uz, Initial residual = 0.0895282, Final residual = 0.00579341, No Iterations 2
GAMG:  Solving for p, Initial residual = 0.120815, Final residual = 0.0119231, No Iterations 2
time step continuity errors : sum local = 0.00397232, global = 0.000286586, cumulative = 0.00327992
smoothSolver:  Solving for omega, Initial residual = 0.000200962, Final residual = 9.58605e-06, No Iterations 2
smoothSolver:  Solving for k, Initial residual = 0.0121998, Final residual = 0.00120784, No Iterations 1
ExecutionTime = 16.24 s  ClockTime = 16 s

forces forcesFish write:
    Sum of forces
        Total    : (0.0151978 0.00196074 -0.0018967)
        Pressure : (-0.20444 0.00196875 -0.0018955)
        Viscous  : (0.219638 -8.01421e-06 -1.19937e-06)
    Sum of moments
        Total    : (-5.51812e-08 -9.7254e-05 0.000208769)
        Pressure : (-8.27196e-08 -9.63673e-05 0.000209356)
        Viscous  : (2.75384e-08 -8.86674e-07 -5.87375e-07)
    writing force and moment files.

Time = 11

smoothSolver:  Solving for Ux, Initial residual = 0.00564229, Final residual = 0.000182044, No Iterations 2
smoothSolver:  Solving for Uy, Initial residual = 0.0620787, Final residual = 0.00389079, No Iterations 2
smoothSolver:  Solving for Uz, Initial residual = 0.0652964, Final residual = 0.00403489, No Iterations 2
GAMG:  Solving for p, Initial residual = 0.120262, Final residual = 0.00494948, No Iterations 3
time step continuity errors : sum local = 0.00158028, global = -0.000173462, cumulative = 0.00310646
smoothSolver:  Solving for omega, Initial residual = 0.000173105, Final residual = 8.41782e-06, No Iterations 2
smoothSolver:  Solving for k, Initial residual = 0.0110163, Final residual = 0.000146214, No Iterations 2
ExecutionTime = 17.54 s  ClockTime = 18 s

forces forcesFish write:
    Sum of forces
        Total    : (0.126327 0.000982956 -0.00336102)
        Pressure : (-0.0900882 0.000989257 -0.00335762)
        Viscous  : (0.216415 -6.30051e-06 -3.40253e-06)
    Sum of moments
        Total    : (5.83922e-09 0.000248394 4.09391e-05)
        Pressure : (-1.99651e-08 0.000248523 4.13387e-05)
        Viscous  : (2.58043e-08 -1.28614e-07 -3.99654e-07)
    writing force and moment files.

Time = 12

smoothSolver:  Solving for Ux, Initial residual = 0.00485627, Final residual = 0.000128632, No Iterations 2
smoothSolver:  Solving for Uy, Initial residual = 0.0453815, Final residual = 0.00205937, No Iterations 2
smoothSolver:  Solving for Uz, Initial residual = 0.0470427, Final residual = 0.00209249, No Iterations 2
GAMG:  Solving for p, Initial residual = 0.111416, Final residual = 0.0110348, No Iterations 2
time step continuity errors : sum local = 0.00321087, global = -0.000414313, cumulative = 0.00269214
smoothSolver:  Solving for omega, Initial residual = 0.000150075, Final residual = 7.40687e-06, No Iterations 2
smoothSolver:  Solving for k, Initial residual = 0.00991815, Final residual = 0.000133662, No Iterations 2
ExecutionTime = 18.8 s  ClockTime = 19 s

forces forcesFish write:
    Sum of forces
        Total    : (0.222321 0.000488546 -0.004006)
        Pressure : (0.00925443 0.000492332 -0.00400077)
        Viscous  : (0.213067 -3.78572e-06 -5.23218e-06)
    Sum of moments
        Total    : (5.30365e-08 0.000470005 -2.66297e-05)
        Pressure : (2.8864e-08 0.000469394 -2.63776e-05)
        Viscous  : (2.41725e-08 6.10608e-07 -2.5205e-07)
    writing force and moment files.

Time = 13

smoothSolver:  Solving for Ux, Initial residual = 0.00413768, Final residual = 9.78658e-05, No Iterations 2
smoothSolver:  Solving for Uy, Initial residual = 0.0479713, Final residual = 0.00200371, No Iterations 2
smoothSolver:  Solving for Uz, Initial residual = 0.0483281, Final residual = 0.00196061, No Iterations 2
GAMG:  Solving for p, Initial residual = 0.103579, Final residual = 0.0098235, No Iterations 2
time step continuity errors : sum local = 0.00260202, global = -0.000554446, cumulative = 0.0021377
smoothSolver:  Solving for omega, Initial residual = 0.000137557, Final residual = 6.78845e-06, No Iterations 2
smoothSolver:  Solving for k, Initial residual = 0.00894358, Final residual = 0.000121951, No Iterations 2
ExecutionTime = 20.04 s  ClockTime = 20 s

forces forcesFish write:
    Sum of forces
        Total    : (0.295419 -0.000313052 -0.00372278)
        Pressure : (0.0857034 -0.000311639 -0.0037162)
        Viscous  : (0.209715 -1.41244e-06 -6.58159e-06)
    Sum of moments
        Total    : (9.59924e-08 0.000586004 -0.0001162)
        Pressure : (7.2193e-08 0.000584734 -0.000115988)
        Viscous  : (2.37993e-08 1.27016e-06 -2.11557e-07)
    writing force and moment files.

Time = 14

smoothSolver:  Solving for Ux, Initial residual = 0.00322278, Final residual = 8.34924e-05, No Iterations 2
smoothSolver:  Solving for Uy, Initial residual = 0.0541447, Final residual = 0.00264043, No Iterations 2
smoothSolver:  Solving for Uz, Initial residual = 0.0545528, Final residual = 0.00258765, No Iterations 2
GAMG:  Solving for p, Initial residual = 0.10778, Final residual = 0.00969793, No Iterations 2
time step continuity errors : sum local = 0.00225765, global = -0.000227193, cumulative = 0.0019105
smoothSolver:  Solving for omega, Initial residual = 0.000129578, Final residual = 6.4165e-06, No Iterations 2
smoothSolver:  Solving for k, Initial residual = 0.00806516, Final residual = 0.000111168, No Iterations 2
ExecutionTime = 21.32 s  ClockTime = 21 s

forces forcesFish write:
    Sum of forces
        Total    : (0.339749 -0.00137442 -0.0024466)
        Pressure : (0.133314 -0.00137469 -0.00243968)
        Viscous  : (0.206435 2.68872e-07 -6.9214e-06)
    Sum of moments
        Total    : (1.26145e-07 0.000585692 -0.000225675)
        Pressure : (1.01584e-07 0.000584002 -0.000225429)
        Viscous  : (2.45618e-08 1.69051e-06 -2.46054e-07)
    writing force and moment files.

Time = 15

smoothSolver:  Solving for Ux, Initial residual = 0.00241826, Final residual = 7.34992e-05, No Iterations 2
smoothSolver:  Solving for Uy, Initial residual = 0.0557083, Final residual = 0.00282819, No Iterations 2
smoothSolver:  Solving for Uz, Initial residual = 0.0573566, Final residual = 0.00286358, No Iterations 2
GAMG:  Solving for p, Initial residual = 0.141601, Final residual = 0.0109826, No Iterations 2
time step continuity errors : sum local = 0.00208735, global = 8.09111e-05, cumulative = 0.00199142
smoothSolver:  Solving for omega, Initial residual = 0.000123353, Final residual = 6.16741e-06, No Iterations 2
smoothSolver:  Solving for k, Initial residual = 0.00727336, Final residual = 0.000101782, No Iterations 2
ExecutionTime = 22.55 s  ClockTime = 23 s

forces forcesFish write:
    Sum of forces
        Total    : (0.352184 -0.0021737 -0.000776733)
        Pressure : (0.148869 -0.0021745 -0.000770373)
        Viscous  : (0.203315 8.02586e-07 -6.35974e-06)
    Sum of moments
        Total    : (1.41427e-07 0.000468827 -0.000302805)
        Pressure : (1.15244e-07 0.000466966 -0.000302418)
        Viscous  : (2.61832e-08 1.86074e-06 -3.86407e-07)
    writing force and moment files.

Time = 16

smoothSolver:  Solving for Ux, Initial residual = 0.00233283, Final residual = 7.03092e-05, No Iterations 2
smoothSolver:  Solving for Uy, Initial residual = 0.0503551, Final residual = 0.00246307, No Iterations 2
smoothSolver:  Solving for Uz, Initial residual = 0.0534348, Final residual = 0.00258334, No Iterations 2
GAMG:  Solving for p, Initial residual = 0.175468, Final residual = 0.0100337, No Iterations 2
time step continuity errors : sum local = 0.00158797, global = -0.000294143, cumulative = 0.00169727
smoothSolver:  Solving for omega, Initial residual = 0.000118247, Final residual = 6.05585e-06, No Iterations 2
smoothSolver:  Solving for k, Initial residual = 0.00655793, Final residual = 9.39986e-05, No Iterations 2
ExecutionTime = 23.81 s  ClockTime = 24 s

forces forcesFish write:
    Sum of forces
        Total    : (0.339158 -0.00231042 0.000447444)
        Pressure : (0.138731 -0.00231074 0.000452671)
        Viscous  : (0.200426 3.22002e-07 -5.2268e-06)
    Sum of moments
        Total    : (1.43175e-07 0.000301753 -0.000301367)
        Pressure : (1.15126e-07 0.000299954 -0.000300758)
        Viscous  : (2.80491e-08 1.79944e-06 -6.0965e-07)
    writing force and moment files.

Time = 17

smoothSolver:  Solving for Ux, Initial residual = 0.00227999, Final residual = 6.48869e-05, No Iterations 2
smoothSolver:  Solving for Uy, Initial residual = 0.0401325, Final residual = 0.00177827, No Iterations 2
smoothSolver:  Solving for Uz, Initial residual = 0.0438673, Final residual = 0.00195238, No Iterations 2
GAMG:  Solving for p, Initial residual = 0.176466, Final residual = 0.0125566, No Iterations 2
time step continuity errors : sum local = 0.00193185, global = -0.000267935, cumulative = 0.00142934
smoothSolver:  Solving for omega, Initial residual = 0.000111552, Final residual = 5.86871e-06, No Iterations 2
smoothSolver:  Solving for k, Initial residual = 0.00592202, Final residual = 8.75684e-05, No Iterations 2
ExecutionTime = 25.07 s  ClockTime = 25 s

forces forcesFish write:
    Sum of forces
        Total    : (0.314899 -0.00205385 0.00124262)
        Pressure : (0.117122 -0.00205295 0.00124648)
        Viscous  : (0.197777 -8.94031e-07 -3.85833e-06)
    Sum of moments
        Total    : (1.32367e-07 0.000141641 -0.00025761)
        Pressure : (1.02739e-07 0.000140056 -0.000256738)
        Viscous  : (2.96284e-08 1.58429e-06 -8.72256e-07)
    writing force and moment files.

Time = 18

smoothSolver:  Solving for Ux, Initial residual = 0.002134, Final residual = 5.72935e-05, No Iterations 2
smoothSolver:  Solving for Uy, Initial residual = 0.0311208, Final residual = 0.0011264, No Iterations 2
smoothSolver:  Solving for Uz, Initial residual = 0.0342157, Final residual = 0.00126528, No Iterations 2
GAMG:  Solving for p, Initial residual = 0.160204, Final residual = 0.0119347, No Iterations 2
time step continuity errors : sum local = 0.00188304, global = -4.68816e-05, cumulative = 0.00138246
smoothSolver:  Solving for omega, Initial residual = 0.000103298, Final residual = 5.53023e-06, No Iterations 2
smoothSolver:  Solving for k, Initial residual = 0.00535452, Final residual = 8.20325e-05, No Iterations 2
ExecutionTime = 26.31 s  ClockTime = 26 s

forces forcesFish write:
    Sum of forces
        Total    : (0.288138 -0.00153703 0.00170995)
        Pressure : (0.092783 -0.00153453 0.00171249)
        Viscous  : (0.195355 -2.49166e-06 -2.53334e-06)
    Sum of moments
        Total    : (1.11606e-07 -5.24093e-06 -0.000188571)
        Pressure : (8.10941e-08 -6.53671e-06 -0.000187452)
        Viscous  : (3.05116e-08 1.29578e-06 -1.11914e-06)
    writing force and moment files.

Time = 19

smoothSolver:  Solving for Ux, Initial residual = 0.00194385, Final residual = 5.02071e-05, No Iterations 2
smoothSolver:  Solving for Uy, Initial residual = 0.0257136, Final residual = 0.000751144, No Iterations 2
smoothSolver:  Solving for Uz, Initial residual = 0.0280359, Final residual = 0.000831165, No Iterations 2
GAMG:  Solving for p, Initial residual = 0.13497, Final residual = 0.00915864, No Iterations 2
time step continuity errors : sum local = 0.00151816, global = 0.0001982, cumulative = 0.00158066
smoothSolver:  Solving for omega, Initial residual = 9.54801e-05, Final residual = 5.14693e-06, No Iterations 2
smoothSolver:  Solving for k, Initial residual = 0.00484689, Final residual = 7.70711e-05, No Iterations 2
ExecutionTime = 27.58 s  ClockTime = 28 s

forces forcesFish write:
    Sum of forces
        Total    : (0.26479 -0.000824532 0.00182097)
        Pressure : (0.0716507 -0.00082041 0.00182246)
        Viscous  : (0.193139 -4.12234e-06 -1.49098e-06)
    Sum of moments
        Total    : (8.54852e-08 -0.000125686 -0.00010079)
        Pressure : (5.48605e-08 -0.000126684 -9.94733e-05)
        Viscous  : (3.06247e-08 9.97016e-07 -1.3167e-06)
    writing force and moment files.

Time = 20

smoothSolver:  Solving for Ux, Initial residual = 0.00175718, Final residual = 4.48121e-05, No Iterations 2
smoothSolver:  Solving for Uy, Initial residual = 0.0238956, Final residual = 0.000829354, No Iterations 2
smoothSolver:  Solving for Uz, Initial residual = 0.0254564, Final residual = 0.000814766, No Iterations 2
GAMG:  Solving for p, Initial residual = 0.110303, Final residual = 0.00682342, No Iterations 2
time step continuity errors : sum local = 0.0011923, global = 0.000175061, cumulative = 0.00175572
smoothSolver:  Solving for omega, Initial residual = 8.80466e-05, Final residual = 4.77243e-06, No Iterations 2
smoothSolver:  Solving for k, Initial residual = 0.00438914, Final residual = 7.24703e-05, No Iterations 2
ExecutionTime = 28.88 s  ClockTime = 29 s

forces forcesFish write:
    Sum of forces
        Total    : (0.247387 9.3196e-05 0.00157417)
        Pressure : (0.0562898 9.86622e-05 0.00157506)
        Viscous  : (0.191097 -5.46615e-06 -8.83818e-07)
    Sum of moments
        Total    : (5.87711e-08 -0.000227059 2.81722e-06)
        Pressure : (2.86695e-08 -0.000227784 4.26613e-06)
        Viscous  : (3.01016e-08 7.24957e-07 -1.44891e-06)
    writing force and moment files.

Time = 21

smoothSolver:  Solving for Ux, Initial residual = 0.00144216, Final residual = 3.96222e-05, No Iterations 2
smoothSolver:  Solving for Uy, Initial residual = 0.0239023, Final residual = 0.000948289, No Iterations 2
smoothSolver:  Solving for Uz, Initial residual = 0.0254078, Final residual = 0.000953008, No Iterations 2
GAMG:  Solving for p, Initial residual = 0.0870809, Final residual = 0.00677564, No Iterations 2
time step continuity errors : sum local = 0.00129882, global = -0.000146498, cumulative = 0.00160922
smoothSolver:  Solving for omega, Initial residual = 8.12869e-05, Final residual = 4.45053e-06, No Iterations 2
smoothSolver:  Solving for k, Initial residual = 0.003969, Final residual = 6.82448e-05, No Iterations 2
ExecutionTime = 30.16 s  ClockTime = 30 s

forces forcesFish write:
    Sum of forces
        Total    : (0.237243 0.00104697 0.000990701)
        Pressure : (0.0480432 0.00105324 0.000991446)
        Viscous  : (0.1892 -6.26048e-06 -7.44884e-07)
    Sum of moments
        Total    : (3.6484e-08 -0.000287709 0.000109414)
        Pressure : (7.30695e-09 -0.000288207 0.000110926)
        Viscous  : (2.9177e-08 4.98066e-07 -1.51255e-06)
    writing force and moment files.

Time = 22

smoothSolver:  Solving for Ux, Initial residual = 0.0010859, Final residual = 3.43073e-05, No Iterations 2
smoothSolver:  Solving for Uy, Initial residual = 0.0244034, Final residual = 0.000984509, No Iterations 2
smoothSolver:  Solving for Uz, Initial residual = 0.0259496, Final residual = 0.00102085, No Iterations 2
GAMG:  Solving for p, Initial residual = 0.0723824, Final residual = 0.00476041, No Iterations 2
time step continuity errors : sum local = 0.00102983, global = -0.000148138, cumulative = 0.00146108
smoothSolver:  Solving for omega, Initial residual = 7.47151e-05, Final residual = 4.15765e-06, No Iterations 2
smoothSolver:  Solving for k, Initial residual = 0.00358619, Final residual = 6.43614e-05, No Iterations 2
ExecutionTime = 31.41 s  ClockTime = 31 s

forces forcesFish write:
    Sum of forces
        Total    : (0.234303 0.00158593 0.000376234)
        Pressure : (0.046877 0.0015924 0.000377184)
        Viscous  : (0.187426 -6.46829e-06 -9.49944e-07)
    Sum of moments
        Total    : (2.06896e-08 -0.000284799 0.00018127)
        Pressure : (-7.41177e-09 -0.000285137 0.000182781)
        Viscous  : (2.81013e-08 3.38666e-07 -1.51131e-06)
    writing force and moment files.

Time = 23

smoothSolver:  Solving for Ux, Initial residual = 0.00102293, Final residual = 3.13417e-05, No Iterations 2
smoothSolver:  Solving for Uy, Initial residual = 0.0225019, Final residual = 0.000838284, No Iterations 2
smoothSolver:  Solving for Uz, Initial residual = 0.0243189, Final residual = 0.000903427, No Iterations 2
GAMG:  Solving for p, Initial residual = 0.0650367, Final residual = 0.00287254, No Iterations 2
time step continuity errors : sum local = 0.000662523, global = 5.1814e-05, cumulative = 0.00151289
smoothSolver:  Solving for omega, Initial residual = 6.80606e-05, Final residual = 3.86823e-06, No Iterations 2
smoothSolver:  Solving for k, Initial residual = 0.00323642, Final residual = 6.07036e-05, No Iterations 2
ExecutionTime = 32.65 s  ClockTime = 33 s

forces forcesFish write:
    Sum of forces
        Total    : (0.236372 0.00159299 -5.27979e-05)
        Pressure : (0.0506331 0.00159924 -5.14695e-05)
        Viscous  : (0.185739 -6.2481e-06 -1.32838e-06)
    Sum of moments
        Total    : (1.17502e-08 -0.000232164 0.000191084)
        Pressure : (-1.55588e-08 -0.000232422 0.000192551)
        Viscous  : (2.7309e-08 2.58193e-07 -1.46661e-06)
    writing force and moment files.

Time = 24

smoothSolver:  Solving for Ux, Initial residual = 0.000966691, Final residual = 2.84769e-05, No Iterations 2
smoothSolver:  Solving for Uy, Initial residual = 0.0190308, Final residual = 0.000630129, No Iterations 2
smoothSolver:  Solving for Uz, Initial residual = 0.0208825, Final residual = 0.000695891, No Iterations 2
GAMG:  Solving for p, Initial residual = 0.0613904, Final residual = 0.00299673, No Iterations 2
time step continuity errors : sum local = 0.000695388, global = 6.28822e-05, cumulative = 0.00157578
smoothSolver:  Solving for omega, Initial residual = 6.23314e-05, Final residual = 3.62501e-06, No Iterations 2
smoothSolver:  Solving for k, Initial residual = 0.002914, Final residual = 5.72513e-05, No Iterations 2
ExecutionTime = 33.92 s  ClockTime = 34 s

forces forcesFish write:
    Sum of forces
        Total    : (0.240487 0.00127802 -0.000292521)
        Pressure : (0.0563477 0.0012838 -0.000290808)
        Viscous  : (0.184139 -5.78081e-06 -1.71309e-06)
    Sum of moments
        Total    : (9.84808e-09 -0.000162298 0.00015499)
        Pressure : (-1.71787e-08 -0.000162531 0.000156399)
        Viscous  : (2.70268e-08 2.32475e-07 -1.40874e-06)
    writing force and moment files.

Time = 25

smoothSolver:  Solving for Ux, Initial residual = 0.00088243, Final residual = 2.58713e-05, No Iterations 2
smoothSolver:  Solving for Uy, Initial residual = 0.0161423, Final residual = 0.000483808, No Iterations 2
smoothSolver:  Solving for Uz, Initial residual = 0.0176532, Final residual = 0.000518809, No Iterations 2
GAMG:  Solving for p, Initial residual = 0.0600483, Final residual = 0.00290717, No Iterations 2
time step continuity errors : sum local = 0.000664673, global = -3.54861e-05, cumulative = 0.00154029
smoothSolver:  Solving for omega, Initial residual = 5.79185e-05, Final residual = 3.43305e-06, No Iterations 2
smoothSolver:  Solving for k, Initial residual = 0.00261792, Final residual = 5.40393e-05, No Iterations 2
ExecutionTime = 35.17 s  ClockTime = 35 s

forces forcesFish write:
    Sum of forces
        Total    : (0.244637 0.000802549 -0.00040375)
        Pressure : (0.0620072 0.000807771 -0.000401763)
        Viscous  : (0.18263 -5.2216e-06 -1.98667e-06)
    Sum of moments
        Total    : (1.44048e-08 -8.67563e-05 9.45177e-05)
        Pressure : (-1.28357e-08 -8.70006e-05 9.58794e-05)
        Viscous  : (2.72405e-08 2.44249e-07 -1.36176e-06)
    writing force and moment files.

Time = 26

smoothSolver:  Solving for Ux, Initial residual = 0.000802452, Final residual = 2.38333e-05, No Iterations 2
smoothSolver:  Solving for Uy, Initial residual = 0.0139222, Final residual = 0.000399383, No Iterations 2
smoothSolver:  Solving for Uz, Initial residual = 0.0152225, Final residual = 0.000418973, No Iterations 2
GAMG:  Solving for p, Initial residual = 0.0564137, Final residual = 0.00221811, No Iterations 2
time step continuity errors : sum local = 0.0004966, global = -0.000101231, cumulative = 0.00143906
smoothSolver:  Solving for omega, Initial residual = 5.42921e-05, Final residual = 3.27389e-06, No Iterations 2
smoothSolver:  Solving for k, Initial residual = 0.00234843, Final residual = 5.1112e-05, No Iterations 2
ExecutionTime = 36.42 s  ClockTime = 36 s

forces forcesFish write:
    Sum of forces
        Total    : (0.247586 0.000236293 -0.000406908)
        Pressure : (0.0663937 0.000241011 -0.000404822)
        Viscous  : (0.181192 -4.71838e-06 -2.08628e-06)
    Sum of moments
        Total    : (2.38018e-08 -1.069e-05 2.07982e-05)
        Pressure : (-4.03333e-09 -1.09687e-05 2.21323e-05)
        Viscous  : (2.78351e-08 2.78724e-07 -1.33417e-06)
    writing force and moment files.

Time = 27

smoothSolver:  Solving for Ux, Initial residual = 0.00074965, Final residual = 2.26864e-05, No Iterations 2
smoothSolver:  Solving for Uy, Initial residual = 0.0121556, Final residual = 0.000358243, No Iterations 2
smoothSolver:  Solving for Uz, Initial residual = 0.013379, Final residual = 0.000368467, No Iterations 2
GAMG:  Solving for p, Initial residual = 0.0512919, Final residual = 0.00276793, No Iterations 2
time step continuity errors : sum local = 0.000602558, global = 4.3825e-05, cumulative = 0.00148288
smoothSolver:  Solving for omega, Initial residual = 5.11315e-05, Final residual = 3.13337e-06, No Iterations 2
smoothSolver:  Solving for k, Initial residual = 0.00210614, Final residual = 4.84388e-05, No Iterations 2
ExecutionTime = 37.67 s  ClockTime = 38 s

forces forcesFish write:
    Sum of forces
        Total    : (0.248971 -0.000345986 -0.000339518)
        Pressure : (0.0691472 -0.000341592 -0.000337495)
        Viscous  : (0.179824 -4.3936e-06 -2.0222e-06)
    Sum of moments
        Total    : (3.56678e-08 6.5834e-05 -5.13784e-05)
        Pressure : (7.03548e-09 6.55034e-05 -5.00509e-05)
        Viscous  : (2.86323e-08 3.30631e-07 -1.32748e-06)
    writing force and moment files.

Time = 28

smoothSolver:  Solving for Ux, Initial residual = 0.000631165, Final residual = 2.14296e-05, No Iterations 2
smoothSolver:  Solving for Uy, Initial residual = 0.0108385, Final residual = 0.000335496, No Iterations 2
smoothSolver:  Solving for Uz, Initial residual = 0.0120043, Final residual = 0.000346127, No Iterations 2
GAMG:  Solving for p, Initial residual = 0.0482635, Final residual = 0.00266977, No Iterations 2
time step continuity errors : sum local = 0.000550417, global = 0.000102782, cumulative = 0.00158567
smoothSolver:  Solving for omega, Initial residual = 4.826e-05, Final residual = 3.00204e-06, No Iterations 2
smoothSolver:  Solving for k, Initial residual = 0.00188389, Final residual = 4.59196e-05, No Iterations 2
ExecutionTime = 38.88 s  ClockTime = 39 s

forces forcesFish write:
    Sum of forces
        Total    : (0.248894 -0.00076051 -0.000271875)
        Pressure : (0.0703639 -0.000756212 -0.00027001)
        Viscous  : (0.17853 -4.2985e-06 -1.86528e-06)
    Sum of moments
        Total    : (4.7533e-08 0.000125597 -0.000106629)
        Pressure : (1.8115e-08 0.000125203 -0.000105284)
        Viscous  : (2.9418e-08 3.93437e-07 -1.34463e-06)
    writing force and moment files.

Time = 29

smoothSolver:  Solving for Ux, Initial residual = 0.000524963, Final residual = 2.02783e-05, No Iterations 2
smoothSolver:  Solving for Uy, Initial residual = 0.0100102, Final residual = 0.000292423, No Iterations 2
smoothSolver:  Solving for Uz, Initial residual = 0.0110087, Final residual = 0.000314348, No Iterations 2
GAMG:  Solving for p, Initial residual = 0.0456076, Final residual = 0.00229857, No Iterations 2
time step continuity errors : sum local = 0.000446707, global = 5.14031e-05, cumulative = 0.00163707
smoothSolver:  Solving for omega, Initial residual = 4.57771e-05, Final residual = 2.89299e-06, No Iterations 2
smoothSolver:  Solving for k, Initial residual = 0.00168306, Final residual = 4.35937e-05, No Iterations 2
ExecutionTime = 40.14 s  ClockTime = 40 s

forces forcesFish write:
    Sum of forces
        Total    : (0.247521 -0.000891959 -0.000220349)
        Pressure : (0.0701968 -0.00088756 -0.000218674)
        Viscous  : (0.177324 -4.39933e-06 -1.67491e-06)
    Sum of moments
        Total    : (5.77329e-08 0.000151408 -0.000129566)
        Pressure : (2.77622e-08 0.000150956 -0.000128184)
        Viscous  : (2.99706e-08 4.51903e-07 -1.3812e-06)
    writing force and moment files.

Time = 30

smoothSolver:  Solving for Ux, Initial residual = 0.000497013, Final residual = 1.94424e-05, No Iterations 2
smoothSolver:  Solving for Uy, Initial residual = 0.00896772, Final residual = 0.000223766, No Iterations 2
smoothSolver:  Solving for Uz, Initial residual = 0.00994668, Final residual = 0.000250513, No Iterations 2
GAMG:  Solving for p, Initial residual = 0.0415748, Final residual = 0.00163848, No Iterations 2
time step continuity errors : sum local = 0.000306867, global = -4.70538e-06, cumulative = 0.00163236
smoothSolver:  Solving for omega, Initial residual = 4.37307e-05, Final residual = 2.80351e-06, No Iterations 2
smoothSolver:  Solving for k, Initial residual = 0.00150348, Final residual = 4.14717e-05, No Iterations 2
ExecutionTime = 41.4 s  ClockTime = 41 s

forces forcesFish write:
    Sum of forces
        Total    : (0.245265 -0.000775027 -0.000175285)
        Pressure : (0.0690668 -0.000770407 -0.000173792)
        Viscous  : (0.176198 -4.61962e-06 -1.49334e-06)
    Sum of moments
        Total    : (6.51145e-08 0.000143126 -0.000116518)
        Pressure : (3.49713e-08 0.000142629 -0.000115094)
        Viscous  : (3.01432e-08 4.96848e-07 -1.42425e-06)
    writing force and moment files.

Time = 31

smoothSolver:  Solving for Ux, Initial residual = 0.000457398, Final residual = 1.8496e-05, No Iterations 2
smoothSolver:  Solving for Uy, Initial residual = 0.00790484, Final residual = 0.000168848, No Iterations 2
smoothSolver:  Solving for Uz, Initial residual = 0.0087671, Final residual = 0.000184623, No Iterations 2
GAMG:  Solving for p, Initial residual = 0.0368734, Final residual = 0.00131481, No Iterations 2
time step continuity errors : sum local = 0.000242865, global = 2.28528e-08, cumulative = 0.00163239
smoothSolver:  Solving for omega, Initial residual = 4.23747e-05, Final residual = 2.72761e-06, No Iterations 2
smoothSolver:  Solving for k, Initial residual = 0.00134389, Final residual = 3.95257e-05, No Iterations 2
ExecutionTime = 42.65 s  ClockTime = 43 s

forces forcesFish write:
    Sum of forces
        Total    : (0.242698 -0.000522013 -0.000134372)
        Pressure : (0.0675627 -0.000517125 -0.000133016)
        Viscous  : (0.175136 -4.88783e-06 -1.3559e-06)
    Sum of moments
        Total    : (6.89659e-08 0.000114246 -7.88762e-05)
        Pressure : (3.90691e-08 0.000113721 -7.74178e-05)
        Viscous  : (2.98968e-08 5.25123e-07 -1.45833e-06)
    writing force and moment files.

Time = 32

smoothSolver:  Solving for Ux, Initial residual = 0.000420055, Final residual = 1.75888e-05, No Iterations 2
smoothSolver:  Solving for Uy, Initial residual = 0.00703757, Final residual = 0.000148728, No Iterations 2
smoothSolver:  Solving for Uz, Initial residual = 0.00781345, Final residual = 0.000152644, No Iterations 2
GAMG:  Solving for p, Initial residual = 0.0331053, Final residual = 0.00111804, No Iterations 2
time step continuity errors : sum local = 0.000205899, global = 3.16611e-05, cumulative = 0.00166405
smoothSolver:  Solving for omega, Initial residual = 4.14093e-05, Final residual = 2.6656e-06, No Iterations 2
smoothSolver:  Solving for k, Initial residual = 0.0012023, Final residual = 3.77296e-05, No Iterations 2
ExecutionTime = 43.94 s  ClockTime = 44 s

forces forcesFish write:
    Sum of forces
        Total    : (0.2403 -0.000212176 -0.000100767)
        Pressure : (0.0661692 -0.000207041 -9.94805e-05)
        Viscous  : (0.174131 -5.13535e-06 -1.28648e-06)
    Sum of moments
        Total    : (6.9258e-08 7.52826e-05 -2.86142e-05)
        Pressure : (3.99469e-08 7.47442e-05 -2.71402e-05)
        Viscous  : (2.93111e-08 5.38481e-07 -1.47394e-06)
    writing force and moment files.

Time = 33

smoothSolver:  Solving for Ux, Initial residual = 0.000400009, Final residual = 1.68551e-05, No Iterations 2
smoothSolver:  Solving for Uy, Initial residual = 0.00635242, Final residual = 0.000146785, No Iterations 2
smoothSolver:  Solving for Uz, Initial residual = 0.00712314, Final residual = 0.000148802, No Iterations 2
GAMG:  Solving for p, Initial residual = 0.030236, Final residual = 0.00116869, No Iterations 2
time step continuity errors : sum local = 0.000215542, global = 2.03129e-05, cumulative = 0.00168436
smoothSolver:  Solving for omega, Initial residual = 4.06674e-05, Final residual = 2.6091e-06, No Iterations 2
smoothSolver:  Solving for k, Initial residual = 0.00107756, Final residual = 3.60701e-05, No Iterations 2
ExecutionTime = 45.17 s  ClockTime = 45 s

forces forcesFish write:
    Sum of forces
        Total    : (0.23831 9.8853e-05 -7.36307e-05)
        Pressure : (0.0651293 0.000104158 -7.23466e-05)
        Viscous  : (0.17318 -5.30515e-06 -1.28404e-06)
    Sum of moments
        Total    : (6.66492e-08 3.19648e-05 2.2497e-05)
        Pressure : (3.81111e-08 3.14267e-05 2.39646e-05)
        Viscous  : (2.85381e-08 5.38098e-07 -1.46765e-06)
    writing force and moment files.

Time = 34

smoothSolver:  Solving for Ux, Initial residual = 0.00037556, Final residual = 1.61958e-05, No Iterations 2
smoothSolver:  Solving for Uy, Initial residual = 0.00579803, Final residual = 0.000146328, No Iterations 2
smoothSolver:  Solving for Uz, Initial residual = 0.00656293, Final residual = 0.00015022, No Iterations 2
GAMG:  Solving for p, Initial residual = 0.0273589, Final residual = 0.001241, No Iterations 2
time step continuity errors : sum local = 0.00023126, global = -2.79652e-05, cumulative = 0.0016564
smoothSolver:  Solving for omega, Initial residual = 3.98986e-05, Final residual = 2.55393e-06, No Iterations 2
smoothSolver:  Solving for k, Initial residual = 0.000968853, Final residual = 3.454e-05, No Iterations 2
ExecutionTime = 46.38 s  ClockTime = 46 s

forces forcesFish write:
    Sum of forces
        Total    : (0.236657 0.000329576 -3.51831e-05)
        Pressure : (0.064379 0.000334958 -3.38646e-05)
        Viscous  : (0.172278 -5.38265e-06 -1.31849e-06)
    Sum of moments
        Total    : (6.22973e-08 -1.01462e-05 5.77577e-05)
        Pressure : (3.45214e-08 -1.06698e-05 5.92038e-05)
        Viscous  : (2.77759e-08 5.2359e-07 -1.44614e-06)
    writing force and moment files.

Time = 35

smoothSolver:  Solving for Ux, Initial residual = 0.000325845, Final residual = 1.53012e-05, No Iterations 2
smoothSolver:  Solving for Uy, Initial residual = 0.00522968, Final residual = 0.000137553, No Iterations 2
smoothSolver:  Solving for Uz, Initial residual = 0.00598667, Final residual = 0.000146694, No Iterations 2
GAMG:  Solving for p, Initial residual = 0.0244383, Final residual = 0.0010538, No Iterations 2
time step continuity errors : sum local = 0.000200876, global = -2.13342e-05, cumulative = 0.00163506
smoothSolver:  Solving for omega, Initial residual = 3.90676e-05, Final residual = 2.49531e-06, No Iterations 2
smoothSolver:  Solving for k, Initial residual = 0.000874868, Final residual = 3.31302e-05, No Iterations 2
ExecutionTime = 47.7 s  ClockTime = 48 s

forces forcesFish write:
    Sum of forces
        Total    : (0.235352 0.000405163 9.31596e-06)
        Pressure : (0.0639324 0.00041056 1.06813e-05)
        Viscous  : (0.17142 -5.39748e-06 -1.36534e-06)
    Sum of moments
        Total    : (5.74704e-08 -3.72476e-05 6.78776e-05)
        Pressure : (3.02733e-08 -3.77484e-05 6.92965e-05)
        Viscous  : (2.71971e-08 5.00732e-07 -1.41894e-06)
    writing force and moment files.

Time = 36

smoothSolver:  Solving for Ux, Initial residual = 0.000296718, Final residual = 1.44113e-05, No Iterations 2
smoothSolver:  Solving for Uy, Initial residual = 0.00462524, Final residual = 0.000119603, No Iterations 2
smoothSolver:  Solving for Uz, Initial residual = 0.00527867, Final residual = 0.00013093, No Iterations 2
GAMG:  Solving for p, Initial residual = 0.0218492, Final residual = 0.000865615, No Iterations 2
time step continuity errors : sum local = 0.000168362, global = -5.77453e-06, cumulative = 0.00162929
smoothSolver:  Solving for omega, Initial residual = 3.81315e-05, Final residual = 2.43167e-06, No Iterations 2
smoothSolver:  Solving for k, Initial residual = 0.000793407, Final residual = 3.18165e-05, No Iterations 2
ExecutionTime = 48.95 s  ClockTime = 49 s

forces forcesFish write:
    Sum of forces
        Total    : (0.234427 0.000345422 4.35677e-05)
        Pressure : (0.0638162 0.000350802 4.4979e-05)
        Viscous  : (0.17061 -5.37969e-06 -1.41134e-06)
    Sum of moments
        Total    : (5.31518e-08 -4.54225e-05 5.67811e-05)
        Pressure : (2.62673e-08 -4.59004e-05 5.81734e-05)
        Viscous  : (2.68845e-08 4.77919e-07 -1.39234e-06)
    writing force and moment files.

Time = 37

smoothSolver:  Solving for Ux, Initial residual = 0.000277626, Final residual = 1.36877e-05, No Iterations 2
smoothSolver:  Solving for Uy, Initial residual = 0.00409283, Final residual = 0.000101459, No Iterations 2
smoothSolver:  Solving for Uz, Initial residual = 0.00461466, Final residual = 0.000109903, No Iterations 2
GAMG:  Solving for p, Initial residual = 0.0197594, Final residual = 0.000659483, No Iterations 2
time step continuity errors : sum local = 0.000129701, global = -8.4846e-07, cumulative = 0.00162844
smoothSolver:  Solving for omega, Initial residual = 3.7115e-05, Final residual = 2.36376e-06, No Iterations 2
smoothSolver:  Solving for k, Initial residual = 0.00072304, Final residual = 3.05816e-05, No Iterations 2
ExecutionTime = 50.28 s  ClockTime = 50 s

forces forcesFish write:
    Sum of forces
        Total    : (0.23379 0.000218977 5.97115e-05)
        Pressure : (0.0639524 0.000224321 6.11563e-05)
        Viscous  : (0.169838 -5.344e-06 -1.44474e-06)
    Sum of moments
        Total    : (4.99973e-08 -3.9738e-05 3.41882e-05)
        Pressure : (2.31727e-08 -4.01987e-05 3.55593e-05)
        Viscous  : (2.68246e-08 4.60769e-07 -1.37114e-06)
    writing force and moment files.

Time = 38

smoothSolver:  Solving for Ux, Initial residual = 0.000259495, Final residual = 1.31064e-05, No Iterations 2
smoothSolver:  Solving for Uy, Initial residual = 0.00368369, Final residual = 8.79711e-05, No Iterations 2
smoothSolver:  Solving for Uz, Initial residual = 0.00411425, Final residual = 9.20712e-05, No Iterations 2
GAMG:  Solving for p, Initial residual = 0.0178918, Final residual = 0.000557177, No Iterations 2
time step continuity errors : sum local = 0.00010994, global = -1.26898e-05, cumulative = 0.00161575
smoothSolver:  Solving for omega, Initial residual = 3.60658e-05, Final residual = 2.29215e-06, No Iterations 2
smoothSolver:  Solving for k, Initial residual = 0.000662612, Final residual = 2.94196e-05, No Iterations 2
ExecutionTime = 51.56 s  ClockTime = 52 s

forces forcesFish write:
    Sum of forces
        Total    : (0.233284 8.4276e-05 5.91869e-05)
        Pressure : (0.0641876 8.95729e-05 6.06401e-05)
        Viscous  : (0.169096 -5.29697e-06 -1.45328e-06)
    Sum of moments
        Total    : (4.82914e-08 -2.74519e-05 8.86235e-06)
        Pressure : (2.13655e-08 -2.79019e-05 1.022e-05)
        Viscous  : (2.69259e-08 4.49961e-07 -1.35766e-06)
    writing force and moment files.

Time = 39

smoothSolver:  Solving for Ux, Initial residual = 0.000245346, Final residual = 1.26422e-05, No Iterations 2
smoothSolver:  Solving for Uy, Initial residual = 0.00333401, Final residual = 7.86794e-05, No Iterations 2
smoothSolver:  Solving for Uz, Initial residual = 0.00373144, Final residual = 8.07807e-05, No Iterations 2
GAMG:  Solving for p, Initial residual = 0.0161001, Final residual = 0.000458024, No Iterations 2
time step continuity errors : sum local = 9.03715e-05, global = -2.82602e-05, cumulative = 0.00158749
smoothSolver:  Solving for omega, Initial residual = 3.49874e-05, Final residual = 2.21754e-06, No Iterations 2
smoothSolver:  Solving for k, Initial residual = 0.000610904, Final residual = 2.83248e-05, No Iterations 2
ExecutionTime = 52.79 s  ClockTime = 53 s

forces forcesFish write:
    Sum of forces
        Total    : (0.232771 -3.52048e-05 4.56233e-05)
        Pressure : (0.0643883 -2.9955e-05 4.70563e-05)
        Viscous  : (0.168383 -5.24983e-06 -1.43301e-06)
    Sum of moments
        Total    : (4.79799e-08 -1.20477e-05 -1.49001e-05)
        Pressure : (2.08935e-08 -1.24926e-05 -1.35471e-05)
        Viscous  : (2.70864e-08 4.44917e-07 -1.35303e-06)
    writing force and moment files.

Time = 40

smoothSolver:  Solving for Ux, Initial residual = 0.000234516, Final residual = 1.22701e-05, No Iterations 2
smoothSolver:  Solving for Uy, Initial residual = 0.003009, Final residual = 7.05591e-05, No Iterations 2
smoothSolver:  Solving for Uz, Initial residual = 0.00339178, Final residual = 7.26224e-05, No Iterations 2
GAMG:  Solving for p, Initial residual = 0.0145358, Final residual = 0.00049024, No Iterations 2
time step continuity errors : sum local = 9.65875e-05, global = -1.84841e-05, cumulative = 0.001569
smoothSolver:  Solving for omega, Initial residual = 3.38886e-05, Final residual = 2.14165e-06, No Iterations 2
smoothSolver:  Solving for k, Initial residual = 0.000566786, Final residual = 2.72925e-05, No Iterations 2
ExecutionTime = 54.05 s  ClockTime = 54 s

forces forcesFish write:
    Sum of forces
        Total    : (0.232197 -0.000123864 2.15523e-05)
        Pressure : (0.064502 -0.000118652 2.29432e-05)
        Viscous  : (0.167695 -5.21248e-06 -1.39095e-06)
    Sum of moments
        Total    : (4.87839e-08 4.9628e-06 -3.26119e-05)
        Pressure : (2.15639e-08 4.51786e-06 -3.12561e-05)
        Viscous  : (2.72201e-08 4.44938e-07 -1.35578e-06)
    writing force and moment files.

Time = 41

smoothSolver:  Solving for Ux, Initial residual = 0.000219686, Final residual = 1.19047e-05, No Iterations 2
smoothSolver:  Solving for Uy, Initial residual = 0.00270073, Final residual = 6.23486e-05, No Iterations 2
smoothSolver:  Solving for Uz, Initial residual = 0.0030797, Final residual = 6.48504e-05, No Iterations 2
GAMG:  Solving for p, Initial residual = 0.0132144, Final residual = 0.000477576, No Iterations 2
time step continuity errors : sum local = 9.35614e-05, global = -1.82418e-07, cumulative = 0.00156882
smoothSolver:  Solving for omega, Initial residual = 3.27806e-05, Final residual = 2.0655e-06, No Iterations 2
smoothSolver:  Solving for k, Initial residual = 0.000528456, Final residual = 2.63063e-05, No Iterations 2
ExecutionTime = 55.31 s  ClockTime = 55 s

forces forcesFish write:
    Sum of forces
        Total    : (0.231627 -0.00015388 -1.07107e-05)
        Pressure : (0.0645953 -0.000148703 -9.37096e-06)
        Viscous  : (0.167032 -5.17716e-06 -1.33969e-06)
    Sum of moments
        Total    : (5.02371e-08 1.97355e-05 -3.69677e-05)
        Pressure : (2.29942e-08 1.92858e-05 -3.56077e-05)
        Viscous  : (2.72429e-08 4.49707e-07 -1.35995e-06)
    writing force and moment files.

Time = 42

smoothSolver:  Solving for Ux, Initial residual = 0.000195788, Final residual = 1.15018e-05, No Iterations 2
smoothSolver:  Solving for Uy, Initial residual = 0.00240693, Final residual = 5.54764e-05, No Iterations 2
smoothSolver:  Solving for Uz, Initial residual = 0.00276917, Final residual = 5.76079e-05, No Iterations 2
GAMG:  Solving for p, Initial residual = 0.0121592, Final residual = 0.00040859, No Iterations 2
time step continuity errors : sum local = 7.91616e-05, global = -9.32635e-06, cumulative = 0.0015595
smoothSolver:  Solving for omega, Initial residual = 3.16383e-05, Final residual = 1.98828e-06, No Iterations 2
smoothSolver:  Solving for k, Initial residual = 0.000495149, Final residual = 2.53671e-05, No Iterations 2
ExecutionTime = 56.6 s  ClockTime = 57 s

forces forcesFish write:
    Sum of forces
        Total    : (0.231042 -0.000127672 -4.03942e-05)
        Pressure : (0.0646509 -0.000122534 -3.91073e-05)
        Viscous  : (0.166391 -5.13804e-06 -1.28684e-06)
    Sum of moments
        Total    : (5.17938e-08 2.73347e-05 -2.98406e-05)
        Pressure : (2.46989e-08 2.68783e-05 -2.84795e-05)
        Viscous  : (2.7095e-08 4.56391e-07 -1.36106e-06)
    writing force and moment files.

Time = 43

smoothSolver:  Solving for Ux, Initial residual = 0.000178916, Final residual = 1.11696e-05, No Iterations 2
smoothSolver:  Solving for Uy, Initial residual = 0.00215677, Final residual = 5.08272e-05, No Iterations 2
smoothSolver:  Solving for Uz, Initial residual = 0.00246015, Final residual = 5.18892e-05, No Iterations 2
GAMG:  Solving for p, Initial residual = 0.0111092, Final residual = 0.0003376, No Iterations 2
time step continuity errors : sum local = 6.47895e-05, global = -1.15823e-05, cumulative = 0.00154791
smoothSolver:  Solving for omega, Initial residual = 3.04913e-05, Final residual = 1.91016e-06, No Iterations 2
smoothSolver:  Solving for k, Initial residual = 0.000466337, Final residual = 2.44705e-05, No Iterations 2
ExecutionTime = 57.84 s  ClockTime = 58 s

forces forcesFish write:
    Sum of forces
        Total    : (0.230398 -7.42445e-05 -6.03635e-05)
        Pressure : (0.0646266 -6.91451e-05 -5.9125e-05)
        Viscous  : (0.165771 -5.09943e-06 -1.23855e-06)
    Sum of moments
        Total    : (5.30344e-08 2.81275e-05 -1.78866e-05)
        Pressure : (2.62435e-08 2.76645e-05 -1.65271e-05)
        Viscous  : (2.67909e-08 4.62979e-07 -1.35953e-06)
    writing force and moment files.

Time = 44

smoothSolver:  Solving for Ux, Initial residual = 0.000170988, Final residual = 1.08912e-05, No Iterations 2
smoothSolver:  Solving for Uy, Initial residual = 0.00195887, Final residual = 4.83691e-05, No Iterations 2
smoothSolver:  Solving for Uz, Initial residual = 0.00218828, Final residual = 4.8009e-05, No Iterations 2
GAMG:  Solving for p, Initial residual = 0.0100438, Final residual = 0.000285693, No Iterations 2
time step continuity errors : sum local = 5.45466e-05, global = -6.75448e-07, cumulative = 0.00154724
smoothSolver:  Solving for omega, Initial residual = 2.93292e-05, Final residual = 1.83226e-06, No Iterations 2
smoothSolver:  Solving for k, Initial residual = 0.000441232, Final residual = 2.36078e-05, No Iterations 2
ExecutionTime = 59.08 s  ClockTime = 59 s

forces forcesFish write:
    Sum of forces
        Total    : (0.229709 -2.248e-05 -7.0449e-05)
        Pressure : (0.0645374 -1.741e-05 -6.92448e-05)
        Viscous  : (0.165172 -5.06998e-06 -1.20419e-06)
    Sum of moments
        Total    : (5.37067e-08 2.56193e-05 -6.55642e-06)
        Pressure : (2.73174e-08 2.51502e-05 -5.20003e-06)
        Viscous  : (2.63892e-08 4.69111e-07 -1.35639e-06)
    writing force and moment files.

Time = 45

smoothSolver:  Solving for Ux, Initial residual = 0.000166907, Final residual = 1.06509e-05, No Iterations 2
smoothSolver:  Solving for Uy, Initial residual = 0.00180849, Final residual = 4.7384e-05, No Iterations 2
smoothSolver:  Solving for Uz, Initial residual = 0.00197787, Final residual = 4.63124e-05, No Iterations 2
GAMG:  Solving for p, Initial residual = 0.00905315, Final residual = 0.000262309, No Iterations 2
time step continuity errors : sum local = 4.99764e-05, global = 1.08019e-05, cumulative = 0.00155804
smoothSolver:  Solving for omega, Initial residual = 2.81546e-05, Final residual = 1.75468e-06, No Iterations 2
smoothSolver:  Solving for k, Initial residual = 0.000418923, Final residual = 2.27797e-05, No Iterations 2
ExecutionTime = 60.34 s  ClockTime = 60 s

forces forcesFish write:
    Sum of forces
        Total    : (0.22902 1.68704e-05 -7.27325e-05)
        Pressure : (0.0644285 2.19238e-05 -7.15416e-05)
        Viscous  : (0.164592 -5.05345e-06 -1.19087e-06)
    Sum of moments
        Total    : (5.37462e-08 2.19755e-05 2.30886e-06)
        Pressure : (2.77933e-08 2.14999e-05 3.6619e-06)
        Viscous  : (2.59528e-08 4.75652e-07 -1.35304e-06)
    writing force and moment files.

Time = 46

smoothSolver:  Solving for Ux, Initial residual = 0.00016338, Final residual = 1.04158e-05, No Iterations 2
smoothSolver:  Solving for Uy, Initial residual = 0.00169977, Final residual = 4.68806e-05, No Iterations 2
smoothSolver:  Solving for Uz, Initial residual = 0.00183625, Final residual = 4.57271e-05, No Iterations 2
GAMG:  Solving for p, Initial residual = 0.00818712, Final residual = 0.000230925, No Iterations 2
time step continuity errors : sum local = 4.39568e-05, global = 1.72111e-05, cumulative = 0.00157525
smoothSolver:  Solving for omega, Initial residual = 2.6987e-05, Final residual = 1.67854e-06, No Iterations 2
smoothSolver:  Solving for k, Initial residual = 0.00039896, Final residual = 2.19811e-05, No Iterations 2
ExecutionTime = 61.6 s  ClockTime = 62 s

forces forcesFish write:
    Sum of forces
        Total    : (0.228362 3.87004e-05 -6.933e-05)
        Pressure : (0.0643307 4.37507e-05 -6.81312e-05)
        Viscous  : (0.164032 -5.05035e-06 -1.19876e-06)
    Sum of moments
        Total    : (5.32124e-08 1.81207e-05 7.4534e-06)
        Pressure : (2.76754e-08 1.7638e-05 8.80347e-06)
        Viscous  : (2.55371e-08 4.82662e-07 -1.35007e-06)
    writing force and moment files.

Time = 47

smoothSolver:  Solving for Ux, Initial residual = 0.000160325, Final residual = 1.01901e-05, No Iterations 2
smoothSolver:  Solving for Uy, Initial residual = 0.00161068, Final residual = 4.63533e-05, No Iterations 2
smoothSolver:  Solving for Uz, Initial residual = 0.00174161, Final residual = 4.54229e-05, No Iterations 2
GAMG:  Solving for p, Initial residual = 0.00736929, Final residual = 0.000257068, No Iterations 2
time step continuity errors : sum local = 4.894e-05, global = 8.38726e-06, cumulative = 0.00158364
smoothSolver:  Solving for omega, Initial residual = 2.5845e-05, Final residual = 1.60498e-06, No Iterations 2
smoothSolver:  Solving for k, Initial residual = 0.000381036, Final residual = 2.12106e-05, No Iterations 2
ExecutionTime = 62.87 s  ClockTime = 63 s

forces forcesFish write:
    Sum of forces
        Total    : (0.227734 3.62355e-05 -6.23772e-05)
        Pressure : (0.0642445 4.12997e-05 -6.11542e-05)
        Viscous  : (0.163489 -5.06416e-06 -1.22293e-06)
    Sum of moments
        Total    : (5.22439e-08 1.4684e-05 6.8076e-06)
        Pressure : (2.70598e-08 1.4194e-05 8.15707e-06)
        Viscous  : (2.51841e-08 4.89928e-07 -1.34947e-06)
    writing force and moment files.

Time = 48

smoothSolver:  Solving for Ux, Initial residual = 0.000155789, Final residual = 9.95346e-06, No Iterations 2
smoothSolver:  Solving for Uy, Initial residual = 0.0015225, Final residual = 4.5888e-05, No Iterations 2
smoothSolver:  Solving for Uz, Initial residual = 0.0016634, Final residual = 4.52555e-05, No Iterations 2
GAMG:  Solving for p, Initial residual = 0.0066545, Final residual = 0.000241745, No Iterations 2
time step continuity errors : sum local = 4.61584e-05, global = 8.22668e-06, cumulative = 0.00159186
smoothSolver:  Solving for omega, Initial residual = 2.47648e-05, Final residual = 1.53611e-06, No Iterations 2
smoothSolver:  Solving for k, Initial residual = 0.000364806, Final residual = 2.04704e-05, No Iterations 2
ExecutionTime = 64.12 s  ClockTime = 64 s

forces forcesFish write:
    Sum of forces
        Total    : (0.227105 1.525e-05 -5.18253e-05)
        Pressure : (0.0641421 2.03442e-05 -5.05696e-05)
        Viscous  : (0.162963 -5.09416e-06 -1.25564e-06)
    Sum of moments
        Total    : (5.10281e-08 1.21242e-05 1.41625e-06)
        Pressure : (2.61136e-08 1.16273e-05 2.76894e-06)
        Viscous  : (2.49145e-08 4.96954e-07 -1.35269e-06)
    writing force and moment files.

Time = 49

smoothSolver:  Solving for Ux, Initial residual = 0.000148844, Final residual = 9.68489e-06, No Iterations 2
smoothSolver:  Solving for Uy, Initial residual = 0.00142066, Final residual = 4.4744e-05, No Iterations 2
smoothSolver:  Solving for Uz, Initial residual = 0.00156413, Final residual = 4.44767e-05, No Iterations 2
GAMG:  Solving for p, Initial residual = 0.00603436, Final residual = 0.000229445, No Iterations 2
time step continuity errors : sum local = 4.40247e-05, global = 2.04219e-05, cumulative = 0.00161229
smoothSolver:  Solving for omega, Initial residual = 2.37541e-05, Final residual = 1.47273e-06, No Iterations 2
smoothSolver:  Solving for k, Initial residual = 0.000350023, Final residual = 1.97616e-05, No Iterations 2
ExecutionTime = 65.37 s  ClockTime = 65 s

forces forcesFish write:
    Sum of forces
        Total    : (0.2265 -6.19892e-06 -4.20462e-05)
        Pressure : (0.0640507 -1.0694e-06 -4.07553e-05)
        Viscous  : (0.16245 -5.12952e-06 -1.29092e-06)
    Sum of moments
        Total    : (4.97424e-08 1.13055e-05 -4.05186e-06)
        Pressure : (2.50186e-08 1.08018e-05 -2.69388e-06)
        Viscous  : (2.47238e-08 5.03658e-07 -1.35798e-06)
    writing force and moment files.

Time = 50

smoothSolver:  Solving for Ux, Initial residual = 0.000141517, Final residual = 9.43059e-06, No Iterations 2
smoothSolver:  Solving for Uy, Initial residual = 0.00130755, Final residual = 4.2731e-05, No Iterations 2
smoothSolver:  Solving for Uz, Initial residual = 0.00143925, Final residual = 4.28025e-05, No Iterations 2
GAMG:  Solving for p, Initial residual = 0.00549823, Final residual = 0.00019242, No Iterations 2
time step continuity errors : sum local = 3.70367e-05, global = 1.72702e-05, cumulative = 0.00162956
smoothSolver:  Solving for omega, Initial residual = 2.28179e-05, Final residual = 1.41444e-06, No Iterations 2
smoothSolver:  Solving for k, Initial residual = 0.000336382, Final residual = 1.90778e-05, No Iterations 2
ExecutionTime = 66.61 s  ClockTime = 67 s

forces forcesFish write:
    Sum of forces
        Total    : (0.225937 -2.03629e-05 -3.52141e-05)
        Pressure : (0.0639884 -1.52032e-05 -3.38912e-05)
        Viscous  : (0.161949 -5.15971e-06 -1.32296e-06)
    Sum of moments
        Total    : (4.85172e-08 1.16451e-05 -7.73055e-06)
        Pressure : (2.39339e-08 1.1135e-05 -6.36736e-06)
        Viscous  : (2.45834e-08 5.10127e-07 -1.36319e-06)
    writing force and moment files.

Time = 51

smoothSolver:  Solving for Ux, Initial residual = 0.00013547, Final residual = 9.20551e-06, No Iterations 2
smoothSolver:  Solving for Uy, Initial residual = 0.00119567, Final residual = 4.02927e-05, No Iterations 2
smoothSolver:  Solving for Uz, Initial residual = 0.00130557, Final residual = 4.0669e-05, No Iterations 2
GAMG:  Solving for p, Initial residual = 0.00504535, Final residual = 0.000171882, No Iterations 2
time step continuity errors : sum local = 3.31233e-05, global = 8.50102e-06, cumulative = 0.00163806
smoothSolver:  Solving for omega, Initial residual = 2.19507e-05, Final residual = 1.36034e-06, No Iterations 2
smoothSolver:  Solving for k, Initial residual = 0.000323849, Final residual = 1.84175e-05, No Iterations 2
ExecutionTime = 67.82 s  ClockTime = 68 s

forces forcesFish write:
    Sum of forces
        Total    : (0.225401 -2.8603e-05 -3.15914e-05)
        Pressure : (0.063941 -2.34221e-05 -3.02439e-05)
        Viscous  : (0.16146 -5.18092e-06 -1.34755e-06)
    Sum of moments
        Total    : (4.74334e-08 1.2325e-05 -1.00082e-05)
        Pressure : (2.29706e-08 1.18089e-05 -8.64087e-06)
        Viscous  : (2.44628e-08 5.16182e-07 -1.36738e-06)
    writing force and moment files.

Time = 52

smoothSolver:  Solving for Ux, Initial residual = 0.000130193, Final residual = 8.99477e-06, No Iterations 2
smoothSolver:  Solving for Uy, Initial residual = 0.00110219, Final residual = 3.81623e-05, No Iterations 2
smoothSolver:  Solving for Uz, Initial residual = 0.00118746, Final residual = 3.87281e-05, No Iterations 2
GAMG:  Solving for p, Initial residual = 0.00464561, Final residual = 0.000158471, No Iterations 2
time step continuity errors : sum local = 3.05551e-05, global = 1.11426e-06, cumulative = 0.00163917
smoothSolver:  Solving for omega, Initial residual = 2.11426e-05, Final residual = 1.30955e-06, No Iterations 2
smoothSolver:  Solving for k, Initial residual = 0.000312266, Final residual = 1.77818e-05, No Iterations 2
ExecutionTime = 69.03 s  ClockTime = 69 s

forces forcesFish write:
    Sum of forces
        Total    : (0.224879 -3.14984e-05 -3.10653e-05)
        Pressure : (0.0638968 -2.63059e-05 -2.97026e-05)
        Viscous  : (0.160982 -5.19252e-06 -1.36271e-06)
    Sum of moments
        Total    : (4.65243e-08 1.30366e-05 -1.09249e-05)
        Pressure : (2.21861e-08 1.25153e-05 -9.55457e-06)
        Viscous  : (2.43381e-08 5.21359e-07 -1.37033e-06)
    writing force and moment files.

Time = 53

smoothSolver:  Solving for Ux, Initial residual = 0.000125592, Final residual = 8.7943e-06, No Iterations 2
smoothSolver:  Solving for Uy, Initial residual = 0.00103025, Final residual = 3.65773e-05, No Iterations 2
smoothSolver:  Solving for Uz, Initial residual = 0.00110152, Final residual = 3.71765e-05, No Iterations 2
GAMG:  Solving for p, Initial residual = 0.00426989, Final residual = 0.000145398, No Iterations 2
time step continuity errors : sum local = 2.80419e-05, global = -4.08808e-06, cumulative = 0.00163508
smoothSolver:  Solving for omega, Initial residual = 2.03759e-05, Final residual = 1.26127e-06, No Iterations 2
smoothSolver:  Solving for k, Initial residual = 0.000301511, Final residual = 1.7169e-05, No Iterations 2
ExecutionTime = 70.28 s  ClockTime = 70 s

forces forcesFish write:
    Sum of forces
        Total    : (0.224365 -2.94523e-05 -3.29677e-05)
        Pressure : (0.0638507 -2.42569e-05 -3.15989e-05)
        Viscous  : (0.160514 -5.1954e-06 -1.36877e-06)
    Sum of moments
        Total    : (4.57832e-08 1.3634e-05 -1.04769e-05)
        Pressure : (2.15902e-08 1.31086e-05 -9.10501e-06)
        Viscous  : (2.4193e-08 5.25467e-07 -1.37193e-06)
    writing force and moment files.

Time = 54

smoothSolver:  Solving for Ux, Initial residual = 0.000121528, Final residual = 8.60525e-06, No Iterations 2
smoothSolver:  Solving for Uy, Initial residual = 0.000974793, Final residual = 3.54833e-05, No Iterations 2
smoothSolver:  Solving for Uz, Initial residual = 0.00103923, Final residual = 3.6041e-05, No Iterations 2
GAMG:  Solving for p, Initial residual = 0.00392483, Final residual = 0.000132735, No Iterations 2
time step continuity errors : sum local = 2.55998e-05, global = -6.4371e-06, cumulative = 0.00162865
smoothSolver:  Solving for omega, Initial residual = 1.96472e-05, Final residual = 1.21495e-06, No Iterations 2
smoothSolver:  Solving for k, Initial residual = 0.00029146, Final residual = 1.65789e-05, No Iterations 2
ExecutionTime = 71.5 s  ClockTime = 72 s

forces forcesFish write:
    Sum of forces
        Total    : (0.223855 -2.34361e-05 -3.65444e-05)
        Pressure : (0.0638 -1.82445e-05 -3.5176e-05)
        Viscous  : (0.160055 -5.19154e-06 -1.36842e-06)
    Sum of moments
        Total    : (4.5178e-08 1.40737e-05 -8.84566e-06)
        Pressure : (2.11568e-08 1.3545e-05 -7.47334e-06)
        Viscous  : (2.40212e-08 5.28681e-07 -1.37232e-06)
    writing force and moment files.

Time = 55

smoothSolver:  Solving for Ux, Initial residual = 0.000117597, Final residual = 8.42269e-06, No Iterations 2
smoothSolver:  Solving for Uy, Initial residual = 0.000931747, Final residual = 3.48494e-05, No Iterations 2
smoothSolver:  Solving for Uz, Initial residual = 0.000993657, Final residual = 3.53226e-05, No Iterations 2
GAMG:  Solving for p, Initial residual = 0.00360948, Final residual = 0.000132734, No Iterations 2
time step continuity errors : sum local = 2.55913e-05, global = -4.92515e-06, cumulative = 0.00162372
smoothSolver:  Solving for omega, Initial residual = 1.89641e-05, Final residual = 1.16986e-06, No Iterations 2
smoothSolver:  Solving for k, Initial residual = 0.000281949, Final residual = 1.60069e-05, No Iterations 2
ExecutionTime = 72.71 s  ClockTime = 73 s

forces forcesFish write:
    Sum of forces
        Total    : (0.223354 -1.40569e-05 -4.101e-05)
        Pressure : (0.0637476 -8.87507e-06 -3.96448e-05)
        Viscous  : (0.159606 -5.18188e-06 -1.36519e-06)
    Sum of moments
        Total    : (4.46648e-08 1.4371e-05 -6.18695e-06)
        Pressure : (2.08403e-08 1.38397e-05 -4.81565e-06)
        Viscous  : (2.38245e-08 5.31306e-07 -1.3713e-06)
    writing force and moment files.

Time = 56

smoothSolver:  Solving for Ux, Initial residual = 0.000113379, Final residual = 8.24288e-06, No Iterations 2
smoothSolver:  Solving for Uy, Initial residual = 0.000896866, Final residual = 3.46088e-05, No Iterations 2
smoothSolver:  Solving for Uz, Initial residual = 0.000958666, Final residual = 3.49585e-05, No Iterations 2
GAMG:  Solving for p, Initial residual = 0.00333754, Final residual = 0.000130852, No Iterations 2
time step continuity errors : sum local = 2.52033e-05, global = -3.5412e-06, cumulative = 0.00162018
smoothSolver:  Solving for omega, Initial residual = 1.83128e-05, Final residual = 1.12686e-06, No Iterations 2
smoothSolver:  Solving for k, Initial residual = 0.000272833, Final residual = 1.54542e-05, No Iterations 2
ExecutionTime = 73.95 s  ClockTime = 74 s

forces forcesFish write:
    Sum of forces
        Total    : (0.222866 -3.27873e-06 -4.43087e-05)
        Pressure : (0.0637004 1.88904e-06 -4.29471e-05)
        Viscous  : (0.159165 -5.16778e-06 -1.36155e-06)
    Sum of moments
        Total    : (4.41983e-08 1.44049e-05 -3.13251e-06)
        Pressure : (2.05878e-08 1.38713e-05 -1.76357e-06)
        Viscous  : (2.36105e-08 5.33602e-07 -1.36894e-06)
    writing force and moment files.

Time = 57

smoothSolver:  Solving for Ux, Initial residual = 0.000109466, Final residual = 8.07223e-06, No Iterations 2
smoothSolver:  Solving for Uy, Initial residual = 0.000867467, Final residual = 3.45201e-05, No Iterations 2
smoothSolver:  Solving for Uz, Initial residual = 0.000925688, Final residual = 3.47159e-05, No Iterations 2
GAMG:  Solving for p, Initial residual = 0.00309959, Final residual = 0.000114552, No Iterations 2
time step continuity errors : sum local = 2.20285e-05, global = -5.5817e-06, cumulative = 0.0016146
smoothSolver:  Solving for omega, Initial residual = 1.7711e-05, Final residual = 1.08673e-06, No Iterations 2
smoothSolver:  Solving for k, Initial residual = 0.000264068, Final residual = 1.49183e-05, No Iterations 2
ExecutionTime = 75.19 s  ClockTime = 75 s

forces forcesFish write:
    Sum of forces
        Total    : (0.22239 4.82185e-06 -4.42868e-05)
        Pressure : (0.0636572 9.97421e-06 -4.29283e-05)
        Viscous  : (0.158733 -5.15236e-06 -1.3585e-06)
    Sum of moments
        Total    : (4.37419e-08 1.39733e-05 -8.9109e-07)
        Pressure : (2.03512e-08 1.34376e-05 4.74964e-07)
        Viscous  : (2.33907e-08 5.35696e-07 -1.36605e-06)
    writing force and moment files.

Time = 58

smoothSolver:  Solving for Ux, Initial residual = 0.000106969, Final residual = 7.92353e-06, No Iterations 2
smoothSolver:  Solving for Uy, Initial residual = 0.000834184, Final residual = 3.42296e-05, No Iterations 2
smoothSolver:  Solving for Uz, Initial residual = 0.000886583, Final residual = 3.42812e-05, No Iterations 2
GAMG:  Solving for p, Initial residual = 0.00287302, Final residual = 0.000103942, No Iterations 2
time step continuity errors : sum local = 1.99595e-05, global = -7.16502e-06, cumulative = 0.00160743
smoothSolver:  Solving for omega, Initial residual = 1.71591e-05, Final residual = 1.04966e-06, No Iterations 2
smoothSolver:  Solving for k, Initial residual = 0.00025565, Final residual = 1.44018e-05, No Iterations 2
ExecutionTime = 76.43 s  ClockTime = 76 s

forces forcesFish write:
    Sum of forces
        Total    : (0.22192 7.83053e-06 -4.12803e-05)
        Pressure : (0.0636117 1.29698e-05 -3.99241e-05)
        Viscous  : (0.158309 -5.13927e-06 -1.35622e-06)
    Sum of moments
        Total    : (4.32728e-08 1.31946e-05 -9.64935e-08)
        Pressure : (2.00973e-08 1.26571e-05 1.26703e-06)
        Viscous  : (2.31755e-08 5.37546e-07 -1.36352e-06)
    writing force and moment files.

Time = 59

smoothSolver:  Solving for Ux, Initial residual = 0.000105683, Final residual = 7.78739e-06, No Iterations 2
smoothSolver:  Solving for Uy, Initial residual = 0.000795179, Final residual = 3.36163e-05, No Iterations 2
smoothSolver:  Solving for Uz, Initial residual = 0.000840697, Final residual = 3.35751e-05, No Iterations 2
GAMG:  Solving for p, Initial residual = 0.00267295, Final residual = 0.000103351, No Iterations 2
time step continuity errors : sum local = 1.9831e-05, global = -5.41647e-06, cumulative = 0.00160202
smoothSolver:  Solving for omega, Initial residual = 1.66527e-05, Final residual = 1.01553e-06, No Iterations 2
smoothSolver:  Solving for k, Initial residual = 0.000247571, Final residual = 1.39042e-05, No Iterations 2
ExecutionTime = 77.67 s  ClockTime = 78 s

forces forcesFish write:
    Sum of forces
        Total    : (0.221455 6.89964e-06 -3.71424e-05)
        Pressure : (0.0635629 1.20295e-05 -3.57875e-05)
        Viscous  : (0.157892 -5.12988e-06 -1.35498e-06)
    Sum of moments
        Total    : (4.27825e-08 1.23846e-05 -4.05482e-07)
        Pressure : (1.98104e-08 1.18455e-05 9.56206e-07)
        Viscous  : (2.29721e-08 5.39075e-07 -1.36169e-06)
    writing force and moment files.

Time = 60

smoothSolver:  Solving for Ux, Initial residual = 0.000104688, Final residual = 7.6542e-06, No Iterations 2
smoothSolver:  Solving for Uy, Initial residual = 0.000753657, Final residual = 3.28982e-05, No Iterations 2
smoothSolver:  Solving for Uz, Initial residual = 0.000792538, Final residual = 3.28061e-05, No Iterations 2
GAMG:  Solving for p, Initial residual = 0.00248708, Final residual = 0.000101045, No Iterations 2
time step continuity errors : sum local = 1.93836e-05, global = -2.60044e-06, cumulative = 0.00159942
smoothSolver:  Solving for omega, Initial residual = 1.61886e-05, Final residual = 9.84194e-07, No Iterations 2
smoothSolver:  Solving for k, Initial residual = 0.000239812, Final residual = 1.34273e-05, No Iterations 2
ExecutionTime = 78.89 s  ClockTime = 79 s

forces forcesFish write:
    Sum of forces
        Total    : (0.220996 3.96866e-06 -3.3196e-05)
        Pressure : (0.0635134 9.09294e-06 -3.18411e-05)
        Viscous  : (0.157483 -5.12429e-06 -1.35489e-06)
    Sum of moments
        Total    : (4.22723e-08 1.17274e-05 -1.33594e-06)
        Pressure : (1.94884e-08 1.11869e-05 2.47371e-08)
        Viscous  : (2.27839e-08 5.40471e-07 -1.36067e-06)
    writing force and moment files.

Time = 61

smoothSolver:  Solving for Ux, Initial residual = 0.000103417, Final residual = 7.52125e-06, No Iterations 2
smoothSolver:  Solving for Uy, Initial residual = 0.000717499, Final residual = 3.22552e-05, No Iterations 2
smoothSolver:  Solving for Uz, Initial residual = 0.000748759, Final residual = 3.21423e-05, No Iterations 2
GAMG:  Solving for p, Initial residual = 0.0023219, Final residual = 9.80468e-05, No Iterations 2
time step continuity errors : sum local = 1.88077e-05, global = 4.61341e-08, cumulative = 0.00159946
smoothSolver:  Solving for omega, Initial residual = 1.57701e-05, Final residual = 9.55287e-07, No Iterations 2
smoothSolver:  Solving for k, Initial residual = 0.000232333, Final residual = 1.29685e-05, No Iterations 2
ExecutionTime = 80.19 s  ClockTime = 80 s

forces forcesFish write:
    Sum of forces
        Total    : (0.220546 2.06687e-07 -3.01907e-05)
        Pressure : (0.063465 5.3284e-06 -2.88351e-05)
        Viscous  : (0.157081 -5.12171e-06 -1.35564e-06)
    Sum of moments
        Total    : (4.17516e-08 1.1311e-05 -2.59098e-06)
        Pressure : (1.91406e-08 1.07691e-05 -1.23068e-06)
        Viscous  : (2.2611e-08 5.41831e-07 -1.36029e-06)
    writing force and moment files.

Time = 62

smoothSolver:  Solving for Ux, Initial residual = 0.000102004, Final residual = 7.39113e-06, No Iterations 2
smoothSolver:  Solving for Uy, Initial residual = 0.000687075, Final residual = 3.17723e-05, No Iterations 2
smoothSolver:  Solving for Uz, Initial residual = 0.000711972, Final residual = 3.16645e-05, No Iterations 2
GAMG:  Solving for p, Initial residual = 0.00216986, Final residual = 9.56122e-05, No Iterations 2
time step continuity errors : sum local = 1.83428e-05, global = 1.78982e-06, cumulative = 0.00160125
smoothSolver:  Solving for omega, Initial residual = 1.53709e-05, Final residual = 9.28019e-07, No Iterations 2
smoothSolver:  Solving for k, Initial residual = 0.000225118, Final residual = 1.25274e-05, No Iterations 2
ExecutionTime = 81.41 s  ClockTime = 81 s

forces forcesFish write:
    Sum of forces
        Total    : (0.220105 -3.72735e-06 -2.84648e-05)
        Pressure : (0.0634178 1.39426e-06 -2.71082e-05)
        Viscous  : (0.156687 -5.12162e-06 -1.35668e-06)
    Sum of moments
        Total    : (4.12344e-08 1.1148e-05 -3.96934e-06)
        Pressure : (1.87832e-08 1.06048e-05 -2.60875e-06)
        Viscous  : (2.24512e-08 5.43203e-07 -1.36058e-06)
    writing force and moment files.

Time = 63

smoothSolver:  Solving for Ux, Initial residual = 0.000100441, Final residual = 7.26394e-06, No Iterations 2
smoothSolver:  Solving for Uy, Initial residual = 0.000661801, Final residual = 3.14538e-05, No Iterations 2
smoothSolver:  Solving for Uz, Initial residual = 0.000682178, Final residual = 3.13612e-05, No Iterations 2
GAMG:  Solving for p, Initial residual = 0.00203241, Final residual = 9.36537e-05, No Iterations 2
time step continuity errors : sum local = 1.79725e-05, global = 2.41709e-06, cumulative = 0.00160367
smoothSolver:  Solving for omega, Initial residual = 1.49785e-05, Final residual = 9.01526e-07, No Iterations 2
smoothSolver:  Solving for k, Initial residual = 0.000218146, Final residual = 1.21049e-05, No Iterations 2
ExecutionTime = 82.63 s  ClockTime = 83 s

forces forcesFish write:
    Sum of forces
        Total    : (0.219672 -7.35718e-06 -2.80895e-05)
        Pressure : (0.0633719 -2.23384e-06 -2.67316e-05)
        Viscous  : (0.1563 -5.12333e-06 -1.35788e-06)
    Sum of moments
        Total    : (4.07351e-08 1.12188e-05 -5.29069e-06)
        Pressure : (1.84343e-08 1.0674e-05 -3.92929e-06)
        Viscous  : (2.23008e-08 5.44786e-07 -1.36139e-06)
    writing force and moment files.

Time = 64

smoothSolver:  Solving for Ux, Initial residual = 9.86059e-05, Final residual = 7.13802e-06, No Iterations 2
smoothSolver:  Solving for Uy, Initial residual = 0.000643918, Final residual = 3.13079e-05, No Iterations 2
[...]
    writing force and moment files.

Time = 283

smoothSolver:  Solving for Ux, Initial residual = 8.53038e-07, Final residual = 3.87519e-08, No Iterations 2
smoothSolver:  Solving for Uy, Initial residual = 1.65753e-05, Final residual = 1.05263e-06, No Iterations 2
smoothSolver:  Solving for Uz, Initial residual = 1.65139e-05, Final residual = 1.04715e-06, No Iterations 2
GAMG:  Solving for p, Initial residual = 4.138e-05, Final residual = 2.32505e-06, No Iterations 2
time step continuity errors : sum local = 4.4066e-07, global = -3.76392e-08, cumulative = 0.00153146
smoothSolver:  Solving for omega, Initial residual = 6.08818e-08, Final residual = 3.03212e-09, No Iterations 2
smoothSolver:  Solving for k, Initial residual = 8.86418e-07, Final residual = 4.16207e-08, No Iterations 2
ExecutionTime = 362.09 s  ClockTime = 362 s

forces forcesFish write:
    Sum of forces
        Total    : (0.196035 -1.78712e-05 -2.49585e-06)
        Pressure : (0.0606788 -1.31083e-05 -1.77513e-06)
        Viscous  : (0.135356 -4.76289e-06 -7.20722e-07)
    Sum of moments
        Total    : (3.45905e-08 1.35231e-06 -8.79927e-06)
        Pressure : (2.4031e-08 9.71143e-07 -7.71241e-06)
        Viscous  : (1.05595e-08 3.81169e-07 -1.08686e-06)
    writing force and moment files.

Time = 284

smoothSolver:  Solving for Ux, Initial residual = 8.2259e-07, Final residual = 3.73193e-08, No Iterations 2
smoothSolver:  Solving for Uy, Initial residual = 1.60062e-05, Final residual = 1.01598e-06, No Iterations 2
smoothSolver:  Solving for Uz, Initial residual = 1.59468e-05, Final residual = 1.01068e-06, No Iterations 2
GAMG:  Solving for p, Initial residual = 4.00739e-05, Final residual = 2.24575e-06, No Iterations 2
time step continuity errors : sum local = 4.25627e-07, global = -3.62626e-08, cumulative = 0.00153142
smoothSolver:  Solving for omega, Initial residual = 5.8617e-08, Final residual = 2.91694e-09, No Iterations 2
smoothSolver:  Solving for k, Initial residual = 8.53027e-07, Final residual = 3.99596e-08, No Iterations 2
ExecutionTime = 363.33 s  ClockTime = 363 s

forces forcesFish write:
    Sum of forces
        Total    : (0.196034 -1.78607e-05 -2.49377e-06)
        Pressure : (0.0606791 -1.30975e-05 -1.77322e-06)
        Viscous  : (0.135355 -4.76314e-06 -7.20554e-07)
    Sum of moments
        Total    : (3.45872e-08 1.35172e-06 -8.79533e-06)
        Pressure : (2.40275e-08 9.70631e-07 -7.7084e-06)
        Viscous  : (1.05597e-08 3.81086e-07 -1.08693e-06)
    writing force and moment files.

Time = 285

smoothSolver:  Solving for Ux, Initial residual = 7.93146e-07, Final residual = 3.5937e-08, No Iterations 2
smoothSolver:  Solving for Uy, Initial residual = 1.54547e-05, Final residual = 9.80492e-07, No Iterations 2
smoothSolver:  Solving for Uz, Initial residual = 1.5397e-05, Final residual = 9.75357e-07, No Iterations 2
GAMG:  Solving for p, Initial residual = 3.88018e-05, Final residual = 2.16884e-06, No Iterations 2
time step continuity errors : sum local = 4.11047e-07, global = -3.49343e-08, cumulative = 0.00153138
smoothSolver:  Solving for omega, Initial residual = 5.64323e-08, Final residual = 2.80596e-09, No Iterations 2
smoothSolver:  Solving for k, Initial residual = 8.20843e-07, Final residual = 3.83639e-08, No Iterations 2
ExecutionTime = 364.57 s  ClockTime = 365 s

forces forcesFish write:
    Sum of forces
        Total    : (0.196032 -1.78496e-05 -2.49112e-06)
        Pressure : (0.0606794 -1.30862e-05 -1.77072e-06)
        Viscous  : (0.135353 -4.76337e-06 -7.20399e-07)
    Sum of moments
        Total    : (3.45841e-08 1.35091e-06 -8.79119e-06)
        Pressure : (2.40242e-08 9.69896e-07 -7.70418e-06)
        Viscous  : (1.05599e-08 3.81009e-07 -1.08701e-06)
    writing force and moment files.

Time = 286

smoothSolver:  Solving for Ux, Initial residual = 7.64678e-07, Final residual = 3.46032e-08, No Iterations 2
smoothSolver:  Solving for Uy, Initial residual = 1.492e-05, Final residual = 9.46119e-07, No Iterations 2
smoothSolver:  Solving for Uz, Initial residual = 1.48642e-05, Final residual = 9.41146e-07, No Iterations 2
GAMG:  Solving for p, Initial residual = 3.75631e-05, Final residual = 2.09428e-06, No Iterations 2
time step continuity errors : sum local = 3.96912e-07, global = -3.3653e-08, cumulative = 0.00153135
smoothSolver:  Solving for omega, Initial residual = 5.43252e-08, Final residual = 2.69905e-09, No Iterations 2
smoothSolver:  Solving for k, Initial residual = 7.89824e-07, Final residual = 3.68311e-08, No Iterations 2
ExecutionTime = 365.82 s  ClockTime = 366 s

forces forcesFish write:
    Sum of forces
        Total    : (0.196031 -1.7838e-05 -2.48794e-06)
        Pressure : (0.0606797 -1.30744e-05 -1.76769e-06)
        Viscous  : (0.135351 -4.76359e-06 -7.20255e-07)
    Sum of moments
        Total    : (3.45811e-08 1.3499e-06 -8.78688e-06)
        Pressure : (2.40211e-08 9.68961e-07 -7.6998e-06)
        Viscous  : (1.056e-08 3.80938e-07 -1.08708e-06)
    writing force and moment files.

Time = 287

smoothSolver:  Solving for Ux, Initial residual = 7.37157e-07, Final residual = 3.33164e-08, No Iterations 2
smoothSolver:  Solving for Uy, Initial residual = 1.4402e-05, Final residual = 9.1284e-07, No Iterations 2
smoothSolver:  Solving for Uz, Initial residual = 1.43479e-05, Final residual = 9.08022e-07, No Iterations 2
GAMG:  Solving for p, Initial residual = 3.63574e-05, Final residual = 2.022e-06, No Iterations 2
time step continuity errors : sum local = 3.83211e-07, global = -3.24173e-08, cumulative = 0.00153132
smoothSolver:  Solving for omega, Initial residual = 5.22929e-08, Final residual = 2.59607e-09, No Iterations 2
smoothSolver:  Solving for k, Initial residual = 7.59929e-07, Final residual = 3.53586e-08, No Iterations 2
ExecutionTime = 367.08 s  ClockTime = 367 s

forces forcesFish write:
    Sum of forces
        Total    : (0.19603 -1.78261e-05 -2.48431e-06)
        Pressure : (0.0606799 -1.30623e-05 -1.76419e-06)
        Viscous  : (0.13535 -4.7638e-06 -7.20121e-07)
    Sum of moments
        Total    : (3.45782e-08 1.34872e-06 -8.78243e-06)
        Pressure : (2.4018e-08 9.67847e-07 -7.69529e-06)
        Viscous  : (1.05602e-08 3.80871e-07 -1.08714e-06)
    writing force and moment files.

Time = 288

smoothSolver:  Solving for Ux, Initial residual = 7.10557e-07, Final residual = 3.20751e-08, No Iterations 2
smoothSolver:  Solving for Uy, Initial residual = 1.39002e-05, Final residual = 8.80626e-07, No Iterations 2
smoothSolver:  Solving for Uz, Initial residual = 1.38478e-05, Final residual = 8.75958e-07, No Iterations 2
GAMG:  Solving for p, Initial residual = 3.51841e-05, Final residual = 1.95195e-06, No Iterations 2
time step continuity errors : sum local = 3.69934e-07, global = -3.12257e-08, cumulative = 0.00153129
smoothSolver:  Solving for omega, Initial residual = 5.0333e-08, Final residual = 2.49686e-09, No Iterations 2
smoothSolver:  Solving for k, Initial residual = 7.31122e-07, Final residual = 3.39443e-08, No Iterations 2
ExecutionTime = 368.32 s  ClockTime = 368 s

forces forcesFish write:
    Sum of forces
        Total    : (0.196028 -1.78139e-05 -2.48028e-06)
        Pressure : (0.0606802 -1.30499e-05 -1.76028e-06)
        Viscous  : (0.135348 -4.76399e-06 -7.19997e-07)
    Sum of moments
        Total    : (3.45754e-08 1.34738e-06 -8.77789e-06)
        Pressure : (2.40151e-08 9.66574e-07 -7.69069e-06)
        Viscous  : (1.05603e-08 3.8081e-07 -1.0872e-06)
    writing force and moment files.

Time = 289

smoothSolver:  Solving for Ux, Initial residual = 6.84851e-07, Final residual = 3.08778e-08, No Iterations 2
smoothSolver:  Solving for Uy, Initial residual = 1.34141e-05, Final residual = 8.4945e-07, No Iterations 2
smoothSolver:  Solving for Uz, Initial residual = 1.33634e-05, Final residual = 8.44928e-07, No Iterations 2
GAMG:  Solving for p, Initial residual = 3.40426e-05, Final residual = 1.88409e-06, No Iterations 2
time step continuity errors : sum local = 3.5707e-07, global = -3.00767e-08, cumulative = 0.00153126
smoothSolver:  Solving for omega, Initial residual = 4.84433e-08, Final residual = 2.40131e-09, No Iterations 2
smoothSolver:  Solving for k, Initial residual = 7.03365e-07, Final residual = 3.25858e-08, No Iterations 2
ExecutionTime = 369.56 s  ClockTime = 370 s

forces forcesFish write:
    Sum of forces
        Total    : (0.196027 -1.78015e-05 -2.47589e-06)
        Pressure : (0.0606805 -1.30373e-05 -1.75601e-06)
        Viscous  : (0.135347 -4.76417e-06 -7.1988e-07)
    Sum of moments
        Total    : (3.45727e-08 1.34592e-06 -8.77328e-06)
        Pressure : (2.40123e-08 9.65163e-07 -7.68602e-06)
        Viscous  : (1.05604e-08 3.80752e-07 -1.08726e-06)
    writing force and moment files.

Time = 290

smoothSolver:  Solving for Ux, Initial residual = 6.60013e-07, Final residual = 2.97231e-08, No Iterations 2
smoothSolver:  Solving for Uy, Initial residual = 1.29435e-05, Final residual = 8.19285e-07, No Iterations 2
smoothSolver:  Solving for Uz, Initial residual = 1.28944e-05, Final residual = 8.14902e-07, No Iterations 2
GAMG:  Solving for p, Initial residual = 3.29324e-05, Final residual = 1.81836e-06, No Iterations 2
time step continuity errors : sum local = 3.4461e-07, global = -2.89688e-08, cumulative = 0.00153123
smoothSolver:  Solving for omega, Initial residual = 4.66212e-08, Final residual = 9.90373e-09, No Iterations 1
smoothSolver:  Solving for k, Initial residual = 6.8023e-07, Final residual = 3.14743e-08, No Iterations 2
ExecutionTime = 370.79 s  ClockTime = 371 s

forces forcesFish write:
    Sum of forces
        Total    : (0.196026 -1.7789e-05 -2.4712e-06)
        Pressure : (0.0606807 -1.30247e-05 -1.75143e-06)
        Viscous  : (0.135345 -4.76433e-06 -7.1977e-07)
    Sum of moments
        Total    : (3.45701e-08 1.34433e-06 -8.76863e-06)
        Pressure : (2.40096e-08 9.63632e-07 -7.68132e-06)
        Viscous  : (1.05605e-08 3.80699e-07 -1.08731e-06)
    writing force and moment files.

Time = 291

smoothSolver:  Solving for Ux, Initial residual = 6.35966e-07, Final residual = 2.86074e-08, No Iterations 2
smoothSolver:  Solving for Uy, Initial residual = 1.24867e-05, Final residual = 7.90156e-07, No Iterations 2
smoothSolver:  Solving for Uz, Initial residual = 1.24391e-05, Final residual = 7.85908e-07, No Iterations 2
GAMG:  Solving for p, Initial residual = 3.18537e-05, Final residual = 1.75484e-06, No Iterations 2
time step continuity errors : sum local = 3.32572e-07, global = -2.78935e-08, cumulative = 0.0015312
smoothSolver:  Solving for omega, Initial residual = 4.6748e-08, Final residual = 9.8284e-09, No Iterations 1
smoothSolver:  Solving for k, Initial residual = 6.58857e-07, Final residual = 3.04338e-08, No Iterations 2
ExecutionTime = 372.05 s  ClockTime = 372 s

forces forcesFish write:
    Sum of forces
        Total    : (0.196025 -1.77765e-05 -2.46628e-06)
        Pressure : (0.060681 -1.3012e-05 -1.74661e-06)
        Viscous  : (0.135344 -4.76448e-06 -7.19667e-07)
    Sum of moments
        Total    : (3.45676e-08 1.34266e-06 -8.76397e-06)
        Pressure : (2.40071e-08 9.62009e-07 -7.67661e-06)
        Viscous  : (1.05605e-08 3.80648e-07 -1.08736e-06)
    writing force and moment files.

Time = 292

smoothSolver:  Solving for Ux, Initial residual = 6.12745e-07, Final residual = 2.75327e-08, No Iterations 2
smoothSolver:  Solving for Uy, Initial residual = 1.20444e-05, Final residual = 7.61976e-07, No Iterations 2
smoothSolver:  Solving for Uz, Initial residual = 1.19983e-05, Final residual = 7.57858e-07, No Iterations 2
GAMG:  Solving for p, Initial residual = 3.08042e-05, Final residual = 1.69336e-06, No Iterations 2
time step continuity errors : sum local = 3.20919e-07, global = -2.6849e-08, cumulative = 0.00153117
smoothSolver:  Solving for omega, Initial residual = 4.63326e-08, Final residual = 9.76305e-09, No Iterations 1
smoothSolver:  Solving for k, Initial residual = 6.37714e-07, Final residual = 2.93854e-08, No Iterations 2
ExecutionTime = 373.29 s  ClockTime = 373 s

forces forcesFish write:
    Sum of forces
        Total    : (0.196024 -1.7764e-05 -2.46116e-06)
        Pressure : (0.0606812 -1.29994e-05 -1.74159e-06)
        Viscous  : (0.135343 -4.76462e-06 -7.1957e-07)
    Sum of moments
        Total    : (3.45651e-08 1.34091e-06 -8.75932e-06)
        Pressure : (2.40046e-08 9.60306e-07 -7.67191e-06)
        Viscous  : (1.05606e-08 3.80601e-07 -1.0874e-06)
    writing force and moment files.

Time = 293

smoothSolver:  Solving for Ux, Initial residual = 5.9032e-07, Final residual = 2.6497e-08, No Iterations 2
smoothSolver:  Solving for Uy, Initial residual = 1.16164e-05, Final residual = 7.34707e-07, No Iterations 2
smoothSolver:  Solving for Uz, Initial residual = 1.15717e-05, Final residual = 7.30716e-07, No Iterations 2
GAMG:  Solving for p, Initial residual = 2.97823e-05, Final residual = 1.6338e-06, No Iterations 2
time step continuity errors : sum local = 3.09629e-07, global = -2.58347e-08, cumulative = 0.00153115
smoothSolver:  Solving for omega, Initial residual = 4.55997e-08, Final residual = 9.63665e-09, No Iterations 1
smoothSolver:  Solving for k, Initial residual = 6.16823e-07, Final residual = 2.8342e-08, No Iterations 2
ExecutionTime = 374.54 s  ClockTime = 375 s

forces forcesFish write:
    Sum of forces
        Total    : (0.196023 -1.77516e-05 -2.45586e-06)
        Pressure : (0.0606815 -1.29869e-05 -1.73638e-06)
        Viscous  : (0.135341 -4.76474e-06 -7.19478e-07)
    Sum of moments
        Total    : (3.45628e-08 1.33909e-06 -8.7547e-06)
        Pressure : (2.40022e-08 9.58531e-07 -7.66726e-06)
        Viscous  : (1.05606e-08 3.80557e-07 -1.08744e-06)
    writing force and moment files.

Time = 294

smoothSolver:  Solving for Ux, Initial residual = 5.6867e-07, Final residual = 2.54988e-08, No Iterations 2
smoothSolver:  Solving for Uy, Initial residual = 1.12024e-05, Final residual = 7.08331e-07, No Iterations 2
smoothSolver:  Solving for Uz, Initial residual = 1.11592e-05, Final residual = 7.04465e-07, No Iterations 2
GAMG:  Solving for p, Initial residual = 2.87876e-05, Final residual = 1.57607e-06, No Iterations 2
time step continuity errors : sum local = 2.98687e-07, global = -2.48511e-08, cumulative = 0.00153112
smoothSolver:  Solving for omega, Initial residual = 4.46655e-08, Final residual = 9.46337e-09, No Iterations 1
smoothSolver:  Solving for k, Initial residual = 5.96199e-07, Final residual = 2.73121e-08, No Iterations 2
ExecutionTime = 375.8 s  ClockTime = 376 s

forces forcesFish write:
    Sum of forces
        Total    : (0.196022 -1.77394e-05 -2.45042e-06)
        Pressure : (0.0606817 -1.29745e-05 -1.73103e-06)
        Viscous  : (0.13534 -4.76485e-06 -7.19391e-07)
    Sum of moments
        Total    : (3.45605e-08 1.33721e-06 -8.75014e-06)
        Pressure : (2.39998e-08 9.56695e-07 -7.66266e-06)
        Viscous  : (1.05607e-08 3.80516e-07 -1.08748e-06)
    writing force and moment files.

Time = 295

smoothSolver:  Solving for Ux, Initial residual = 5.47768e-07, Final residual = 2.45365e-08, No Iterations 2
smoothSolver:  Solving for Uy, Initial residual = 1.08021e-05, Final residual = 6.82827e-07, No Iterations 2
smoothSolver:  Solving for Uz, Initial residual = 1.07603e-05, Final residual = 6.7908e-07, No Iterations 2
GAMG:  Solving for p, Initial residual = 2.78202e-05, Final residual = 1.52013e-06, No Iterations 2
time step continuity errors : sum local = 2.88085e-07, global = -2.38997e-08, cumulative = 0.0015311
smoothSolver:  Solving for omega, Initial residual = 4.36032e-08, Final residual = 9.25946e-09, No Iterations 1
smoothSolver:  Solving for k, Initial residual = 5.7586e-07, Final residual = 2.63001e-08, No Iterations 2
ExecutionTime = 377.07 s  ClockTime = 377 s

forces forcesFish write:
    Sum of forces
        Total    : (0.196021 -1.77273e-05 -2.44485e-06)
        Pressure : (0.0606819 -1.29624e-05 -1.72554e-06)
        Viscous  : (0.135339 -4.76495e-06 -7.19307e-07)
    Sum of moments
        Total    : (3.45583e-08 1.33528e-06 -8.74566e-06)
        Pressure : (2.39976e-08 9.54806e-07 -7.65816e-06)
        Viscous  : (1.05607e-08 3.80476e-07 -1.08751e-06)
    writing force and moment files.

Time = 296

smoothSolver:  Solving for Ux, Initial residual = 5.27592e-07, Final residual = 2.3609e-08, No Iterations 2
smoothSolver:  Solving for Uy, Initial residual = 1.0415e-05, Final residual = 6.5817e-07, No Iterations 2
smoothSolver:  Solving for Uz, Initial residual = 1.03746e-05, Final residual = 6.54538e-07, No Iterations 2
GAMG:  Solving for p, Initial residual = 2.688e-05, Final residual = 1.46595e-06, No Iterations 2
time step continuity errors : sum local = 2.77814e-07, global = -2.29824e-08, cumulative = 0.00153108
smoothSolver:  Solving for omega, Initial residual = 4.24635e-08, Final residual = 9.03593e-09, No Iterations 1
smoothSolver:  Solving for k, Initial residual = 5.5581e-07, Final residual = 2.53085e-08, No Iterations 2
ExecutionTime = 378.33 s  ClockTime = 378 s

forces forcesFish write:
    Sum of forces
        Total    : (0.19602 -1.77156e-05 -2.43919e-06)
        Pressure : (0.0606821 -1.29505e-05 -1.71997e-06)
        Viscous  : (0.135338 -4.76503e-06 -7.19227e-07)
    Sum of moments
        Total    : (3.45561e-08 1.33332e-06 -8.74129e-06)
        Pressure : (2.39954e-08 9.52878e-07 -7.65375e-06)
        Viscous  : (1.05607e-08 3.80439e-07 -1.08753e-06)
    writing force and moment files.

Time = 297

smoothSolver:  Solving for Ux, Initial residual = 5.08117e-07, Final residual = 2.2715e-08, No Iterations 2
smoothSolver:  Solving for Uy, Initial residual = 1.00409e-05, Final residual = 6.34337e-07, No Iterations 2
smoothSolver:  Solving for Uz, Initial residual = 1.00018e-05, Final residual = 6.30814e-07, No Iterations 2
GAMG:  Solving for p, Initial residual = 2.59673e-05, Final residual = 1.41349e-06, No Iterations 2
time step continuity errors : sum local = 2.67871e-07, global = -2.21005e-08, cumulative = 0.00153105
smoothSolver:  Solving for omega, Initial residual = 4.12799e-08, Final residual = 8.80027e-09, No Iterations 1
smoothSolver:  Solving for k, Initial residual = 5.36048e-07, Final residual = 2.43387e-08, No Iterations 2
ExecutionTime = 379.6 s  ClockTime = 380 s

forces forcesFish write:
    Sum of forces
        Total    : (0.196019 -1.77041e-05 -2.43348e-06)
        Pressure : (0.0606823 -1.2939e-05 -1.71433e-06)
        Viscous  : (0.135337 -4.76511e-06 -7.19151e-07)
    Sum of moments
        Total    : (3.4554e-08 1.33133e-06 -8.73703e-06)
        Pressure : (2.39933e-08 9.50924e-07 -7.64947e-06)
        Viscous  : (1.05607e-08 3.80404e-07 -1.08756e-06)
    writing force and moment files.

Time = 298

smoothSolver:  Solving for Ux, Initial residual = 4.89322e-07, Final residual = 2.18534e-08, No Iterations 2
smoothSolver:  Solving for Uy, Initial residual = 9.67927e-06, Final residual = 6.11304e-07, No Iterations 2
smoothSolver:  Solving for Uz, Initial residual = 9.64146e-06, Final residual = 6.07887e-07, No Iterations 2
GAMG:  Solving for p, Initial residual = 2.50817e-05, Final residual = 1.36272e-06, No Iterations 2
time step continuity errors : sum local = 2.58249e-07, global = -2.12552e-08, cumulative = 0.00153103
smoothSolver:  Solving for omega, Initial residual = 4.00751e-08, Final residual = 8.55837e-09, No Iterations 1
smoothSolver:  Solving for k, Initial residual = 5.16571e-07, Final residual = 2.33916e-08, No Iterations 2
ExecutionTime = 380.85 s  ClockTime = 381 s


SIMPLE solution converged in 298 iterations

forces forcesFish write:
    Sum of forces
        Total    : (0.196018 -1.7693e-05 -2.42774e-06)
        Pressure : (0.0606825 -1.29279e-05 -1.70866e-06)
        Viscous  : (0.135336 -4.76517e-06 -7.19077e-07)
    Sum of moments
        Total    : (3.4552e-08 1.32933e-06 -8.7329e-06)
        Pressure : (2.39913e-08 9.48955e-07 -7.64532e-06)
        Viscous  : (1.05607e-08 3.80371e-07 -1.08758e-06)
    writing force and moment files.

End

