/*---------------------------------------------------------------------------*\
| =========                 |                                                 |
| \\      /  F ield         | OpenFOAM: The Open Source CFD Toolbox           |
|  \\    /   O peration     | Version:  2512                                  |
|   \\  /    A nd           | Website:  www.openfoam.com                      |
|    \\/     M anipulation  |                                                 |
\*---------------------------------------------------------------------------*/
Build  : _bd2b6720-20260127 OPENFOAM=2512 version=2512
Arch   : "LSB;label=32;scalar=64"
Exec   : simpleFoam
Date   : Mar 28 2026
Time   : 17:37:45
Host   : mathias-laptop
PID    : 9961
I/O    : uncollated
Case   : /home/mat/OpenFOAM/mat-run/speed_sweep_runs/U_1p2
nProcs : 1
trapFpe: Floating point exception trapping enabled (FOAM_SIGFPE).
memory pool : not available
fileModificationChecking : Monitoring run-time modified files using timeStampMaster (fileModificationSkew 5, maxFileModificationPolls 20)
allowSystemOperations : Allowing user-supplied system call operations

// * * * * * * * * * * * * * * * * * * * * * * * * * * * * * * * * * * * * * //
Create time

Create mesh for time = 0


SIMPLE: convergence criteria
    field p	 tolerance 0.0001
    field U	 tolerance 1e-05
    field "(k|omega)"	 tolerance 1e-05

Reading field p

Reading field U

Reading/calculating face flux field phi

Selecting incompressible transport model Newtonian
Selecting turbulence model type RAS
Selecting RAS turbulence model kOmegaSST
Selecting patchDistMethod meshWave
RAS
{
    RASModel        kOmegaSST;
    turbulence      on;
    printCoeffs     on;
    alphaK1         0.85;
    alphaK2         1;
    alphaOmega1     0.5;
    alphaOmega2     0.856;
    gamma1          0.555556;
    gamma2          0.44;
    beta1           0.075;
    beta2           0.0828;
    betaStar        0.09;
    a1              0.31;
    b1              1;
    c1              10;
    F3              false;
    decayControl    false;
    kInf            0;
    omegaInf        0;
}

No MRF models present

No finite volume options present

Starting time loop

forces forcesFish:
    rho: rhoInf
    Freestream density (rhoInf) set to 1000
    Not including porosity effects

Time = 1

smoothSolver:  Solving for Ux, Initial residual = 0.999999, Final residual = 0.025014, No Iterations 2
smoothSolver:  Solving for Uy, Initial residual = 1, Final residual = 0.0529008, No Iterations 2
smoothSolver:  Solving for Uz, Initial residual = 1, Final residual = 0.0468247, No Iterations 2
GAMG:  Solving for p, Initial residual = 1, Final residual = 0.0571523, No Iterations 5
time step continuity errors : sum local = 1.36129e-05, global = -1.67849e-06, cumulative = -1.67849e-06
smoothSolver:  Solving for omega, Initial residual = 0.0066099, Final residual = 0.000194329, No Iterations 1
bounding omega, min: -5.81771 max: 10124.2 average: 98.5739
smoothSolver:  Solving for k, Initial residual = 1, Final residual = 0.0272212, No Iterations 1
ExecutionTime = 1.87 s  ClockTime = 2 s

forces forcesFish write:
    Sum of forces
        Total    : (1.24429 0.0331598 -0.0108179)
        Pressure : (1.04181 0.0330907 -0.0108144)
        Viscous  : (0.202479 6.91331e-05 -3.49394e-06)
    Sum of moments
        Total    : (-3.3726e-06 -1.49888e-05 0.0235481)
        Pressure : (-3.30368e-06 -1.99811e-05 0.0234327)
        Viscous  : (-6.89159e-08 4.99226e-06 0.000115361)
    writing force and moment files.

Time = 2

smoothSolver:  Solving for Ux, Initial residual = 0.0224327, Final residual = 0.000890227, No Iterations 2
smoothSolver:  Solving for Uy, Initial residual = 0.320817, Final residual = 0.0213783, No Iterations 2
smoothSolver:  Solving for Uz, Initial residual = 0.258338, Final residual = 0.0183714, No Iterations 2
GAMG:  Solving for p, Initial residual = 0.169925, Final residual = 0.0142854, No Iterations 3
time step continuity errors : sum local = 2.72473e-05, global = -1.50099e-06, cumulative = -3.17948e-06
smoothSolver:  Solving for omega, Initial residual = 0.00429201, Final residual = 0.000117656, No Iterations 1
smoothSolver:  Solving for k, Initial residual = 0.421722, Final residual = 0.0117375, No Iterations 1
ExecutionTime = 2.45 s  ClockTime = 2 s

forces forcesFish write:
    Sum of forces
        Total    : (1.59322 0.0499658 -0.0118384)
        Pressure : (1.38771 0.0499036 -0.0118639)
        Viscous  : (0.205506 6.22087e-05 2.5492e-05)
    Sum of moments
        Total    : (1.18615e-06 -6.30309e-05 0.0326938)
        Pressure : (1.10066e-06 -6.60462e-05 0.0325749)
        Viscous  : (8.54886e-08 3.01528e-06 0.000118905)
    writing force and moment files.

Time = 3

smoothSolver:  Solving for Ux, Initial residual = 0.00501853, Final residual = 0.000211383, No Iterations 2
smoothSolver:  Solving for Uy, Initial residual = 0.212699, Final residual = 0.0139776, No Iterations 2
smoothSolver:  Solving for Uz, Initial residual = 0.145727, Final residual = 0.0102353, No Iterations 2
GAMG:  Solving for p, Initial residual = 0.341728, Final residual = 0.0126694, No Iterations 3
time step continuity errors : sum local = 1.66674e-05, global = -1.44433e-06, cumulative = -4.62381e-06
smoothSolver:  Solving for omega, Initial residual = 0.0031246, Final residual = 8.84974e-05, No Iterations 1
smoothSolver:  Solving for k, Initial residual = 0.243949, Final residual = 0.0069246, No Iterations 1
ExecutionTime = 2.98 s  ClockTime = 3 s

forces forcesFish write:
    Sum of forces
        Total    : (1.53004 0.0514333 -0.00987907)
        Pressure : (1.32119 0.051387 -0.00992682)
        Viscous  : (0.208852 4.62563e-05 4.77521e-05)
    Sum of moments
        Total    : (8.57093e-06 -0.000217219 0.0312895)
        Pressure : (8.32038e-06 -0.000218753 0.0311747)
        Viscous  : (2.50554e-07 1.53477e-06 0.000114874)
    writing force and moment files.

Time = 4

smoothSolver:  Solving for Ux, Initial residual = 0.00269559, Final residual = 0.00011438, No Iterations 2
smoothSolver:  Solving for Uy, Initial residual = 0.16069, Final residual = 0.0104149, No Iterations 2
smoothSolver:  Solving for Uz, Initial residual = 0.0896851, Final residual = 0.00618273, No Iterations 2
GAMG:  Solving for p, Initial residual = 0.311772, Final residual = 0.0139812, No Iterations 3
time step continuity errors : sum local = 2.80924e-05, global = -1.1851e-06, cumulative = -5.80891e-06
smoothSolver:  Solving for omega, Initial residual = 0.00238464, Final residual = 6.98206e-05, No Iterations 1
smoothSolver:  Solving for k, Initial residual = 0.161049, Final residual = 0.0046484, No Iterations 1
ExecutionTime = 3.55 s  ClockTime = 4 s

forces forcesFish write:
    Sum of forces
        Total    : (1.22453 0.043297 -0.00634988)
        Pressure : (1.01256 0.0432735 -0.00640972)
        Viscous  : (0.21197 2.35281e-05 5.98398e-05)
    Sum of moments
        Total    : (1.52749e-05 -0.000391515 0.0236038)
        Pressure : (1.48852e-05 -0.000392067 0.0234951)
        Viscous  : (3.89706e-07 5.51289e-07 0.000108645)
    writing force and moment files.

Time = 5

smoothSolver:  Solving for Ux, Initial residual = 0.00167279, Final residual = 6.92493e-05, No Iterations 2
smoothSolver:  Solving for Uy, Initial residual = 0.0989608, Final residual = 0.00625974, No Iterations 2
smoothSolver:  Solving for Uz, Initial residual = 0.0529581, Final residual = 0.00352543, No Iterations 2
GAMG:  Solving for p, Initial residual = 0.1579, Final residual = 0.00841932, No Iterations 3
time step continuity errors : sum local = 3.46011e-05, global = -4.22459e-07, cumulative = -6.23137e-06
smoothSolver:  Solving for omega, Initial residual = 0.00187431, Final residual = 5.65384e-05, No Iterations 1
smoothSolver:  Solving for k, Initial residual = 0.114815, Final residual = 0.00336244, No Iterations 1
ExecutionTime = 4.26 s  ClockTime = 4 s

forces forcesFish write:
    Sum of forces
        Total    : (0.826259 0.0311374 -0.00243569)
        Pressure : (0.61147 0.0311455 -0.0024963)
        Viscous  : (0.21479 -8.12626e-06 6.06105e-05)
    Sum of moments
        Total    : (1.85213e-05 -0.000461859 0.0135216)
        Pressure : (1.80271e-05 -0.00046203 0.0134197)
        Viscous  : (4.9422e-07 1.70504e-07 0.000101912)
    writing force and moment files.

Time = 6

smoothSolver:  Solving for Ux, Initial residual = 0.00121503, Final residual = 4.31906e-05, No Iterations 2
smoothSolver:  Solving for Uy, Initial residual = 0.0607773, Final residual = 0.00324158, No Iterations 2
smoothSolver:  Solving for Uz, Initial residual = 0.0290924, Final residual = 0.00156241, No Iterations 2
GAMG:  Solving for p, Initial residual = 0.0905556, Final residual = 0.0053479, No Iterations 3
time step continuity errors : sum local = 3.31155e-05, global = 6.42401e-07, cumulative = -5.58897e-06
smoothSolver:  Solving for omega, Initial residual = 0.00150496, Final residual = 4.65218e-05, No Iterations 1
smoothSolver:  Solving for k, Initial residual = 0.0861734, Final residual = 0.00255704, No Iterations 1
ExecutionTime = 4.82 s  ClockTime = 5 s

forces forcesFish write:
    Sum of forces
        Total    : (0.453303 0.0190542 0.000846529)
        Pressure : (0.235982 0.0190972 0.000794324)
        Viscous  : (0.217321 -4.29459e-05 5.22047e-05)
    Sum of moments
        Total    : (1.80457e-05 -0.000381419 0.00414607)
        Pressure : (1.74895e-05 -0.000381838 0.00405008)
        Viscous  : (5.5616e-07 4.18675e-07 9.59938e-05)
    writing force and moment files.

Time = 7

smoothSolver:  Solving for Ux, Initial residual = 0.00100479, Final residual = 2.98432e-05, No Iterations 2
smoothSolver:  Solving for Uy, Initial residual = 0.0432644, Final residual = 0.00145871, No Iterations 2
smoothSolver:  Solving for Uz, Initial residual = 0.0239542, Final residual = 0.000817952, No Iterations 2
GAMG:  Solving for p, Initial residual = 0.059402, Final residual = 0.003241, No Iterations 3
time step continuity errors : sum local = 2.56599e-05, global = 1.66528e-06, cumulative = -3.92369e-06
smoothSolver:  Solving for omega, Initial residual = 0.00122933, Final residual = 3.87812e-05, No Iterations 1
smoothSolver:  Solving for k, Initial residual = 0.0671664, Final residual = 0.002018, No Iterations 1
ExecutionTime = 5.34 s  ClockTime = 5 s

forces forcesFish write:
    Sum of forces
        Total    : (0.178264 0.00929584 0.00287652)
        Pressure : (-0.0412885 0.00936743 0.00283773)
        Viscous  : (0.219552 -7.15812e-05 3.8783e-05)
    Sum of moments
        Total    : (1.50962e-05 -0.00017451 -0.00264425)
        Pressure : (1.45133e-05 -0.000175567 -0.0027368)
        Viscous  : (5.82854e-07 1.0561e-06 9.25538e-05)
    writing force and moment files.

Time = 8

smoothSolver:  Solving for Ux, Initial residual = 0.000922132, Final residual = 2.60049e-05, No Iterations 2
smoothSolver:  Solving for Uy, Initial residual = 0.0423164, Final residual = 0.00184883, No Iterations 2
smoothSolver:  Solving for Uz, Initial residual = 0.0357915, Final residual = 0.00181731, No Iterations 2
GAMG:  Solving for p, Initial residual = 0.0500241, Final residual = 0.00463196, No Iterations 2
time step continuity errors : sum local = 4.20053e-05, global = 2.62265e-06, cumulative = -1.30103e-06
smoothSolver:  Solving for omega, Initial residual = 0.00101886, Final residual = 3.27428e-05, No Iterations 1
smoothSolver:  Solving for k, Initial residual = 0.0538992, Final residual = 0.00163921, No Iterations 1
ExecutionTime = 5.83 s  ClockTime = 6 s

forces forcesFish write:
    Sum of forces
        Total    : (0.0389998 0.00300198 0.00185826)
        Pressure : (-0.182464 0.00308854 0.00183353)
        Viscous  : (0.221463 -8.65599e-05 2.47254e-05)
    Sum of moments
        Total    : (1.51734e-05 0.00031662 -0.00595042)
        Pressure : (1.46097e-05 0.000314821 -0.00604309)
        Viscous  : (5.63631e-07 1.79948e-06 9.26635e-05)
    writing force and moment files.

Time = 9

smoothSolver:  Solving for Ux, Initial residual = 0.000882723, Final residual = 2.48353e-05, No Iterations 2
smoothSolver:  Solving for Uy, Initial residual = 0.0383269, Final residual = 0.00186248, No Iterations 2
smoothSolver:  Solving for Uz, Initial residual = 0.0442975, Final residual = 0.00245856, No Iterations 2
GAMG:  Solving for p, Initial residual = 0.0530233, Final residual = 0.00386403, No Iterations 2
time step continuity errors : sum local = 3.68562e-05, global = 3.65441e-06, cumulative = 2.35337e-06
smoothSolver:  Solving for omega, Initial residual = 0.000854648, Final residual = 2.7905e-05, No Iterations 1
smoothSolver:  Solving for k, Initial residual = 0.0442558, Final residual = 0.00136188, No Iterations 1
ExecutionTime = 6.33 s  ClockTime = 6 s

forces forcesFish write:
    Sum of forces
        Total    : (0.00506877 -0.00016521 0.000378616)
        Pressure : (-0.21797 -8.03747e-05 0.000365474)
        Viscous  : (0.223039 -8.48355e-05 1.31421e-05)
    Sum of moments
        Total    : (1.09214e-05 0.000718417 -0.00655188)
        Pressure : (1.04099e-05 0.000715987 -0.00664783)
        Viscous  : (5.11498e-07 2.42915e-06 9.5953e-05)
    writing force and moment files.

Time = 10

smoothSolver:  Solving for Ux, Initial residual = 0.000826173, Final residual = 2.26452e-05, No Iterations 2
smoothSolver:  Solving for Uy, Initial residual = 0.0323678, Final residual = 0.00159062, No Iterations 2
smoothSolver:  Solving for Uz, Initial residual = 0.0462525, Final residual = 0.00258792, No Iterations 2
GAMG:  Solving for p, Initial residual = 0.0584954, Final residual = 0.0044029, No Iterations 2
time step continuity errors : sum local = 4.19776e-05, global = 4.59691e-06, cumulative = 6.95028e-06
smoothSolver:  Solving for omega, Initial residual = 0.000724178, Final residual = 2.40114e-05, No Iterations 1
smoothSolver:  Solving for k, Initial residual = 0.0370032, Final residual = 0.00115122, No Iterations 1
ExecutionTime = 6.84 s  ClockTime = 7 s

forces forcesFish write:
    Sum of forces
        Total    : (0.0444282 -0.000857771 -0.000653917)
        Pressure : (-0.179818 -0.000789482 -0.000660175)
        Viscous  : (0.224247 -6.82886e-05 6.25852e-06)
    Sum of moments
        Total    : (2.78309e-06 0.000852508 -0.00524755)
        Pressure : (2.34196e-06 0.000849699 -0.00534898)
        Viscous  : (4.41132e-07 2.80864e-06 0.000101432)
    writing force and moment files.

Time = 11

smoothSolver:  Solving for Ux, Initial residual = 0.000739281, Final residual = 1.93292e-05, No Iterations 2
smoothSolver:  Solving for Uy, Initial residual = 0.0267249, Final residual = 0.00123491, No Iterations 2
smoothSolver:  Solving for Uz, Initial residual = 0.041847, Final residual = 0.00221045, No Iterations 2
GAMG:  Solving for p, Initial residual = 0.0610845, Final residual = 0.00482271, No Iterations 2
time step continuity errors : sum local = 4.43161e-05, global = 4.99774e-06, cumulative = 1.1948e-05
smoothSolver:  Solving for omega, Initial residual = 0.000618766, Final residual = 2.08378e-05, No Iterations 1
smoothSolver:  Solving for k, Initial residual = 0.0313875, Final residual = 0.000986155, No Iterations 1
ExecutionTime = 7.36 s  ClockTime = 7 s

forces forcesFish write:
    Sum of forces
        Total    : (0.123382 -8.42903e-05 -0.000926849)
        Pressure : (-0.101699 -4.31459e-05 -0.000931681)
        Viscous  : (0.225081 -4.11443e-05 4.83151e-06)
    Sum of moments
        Total    : (-7.19851e-06 0.000713208 -0.00290054)
        Pressure : (-7.56552e-06 0.00071036 -0.00300888)
        Viscous  : (3.67007e-07 2.84772e-06 0.00010834)
    writing force and moment files.

Time = 12

smoothSolver:  Solving for Ux, Initial residual = 0.000634915, Final residual = 1.56078e-05, No Iterations 2
smoothSolver:  Solving for Uy, Initial residual = 0.0230393, Final residual = 0.000890244, No Iterations 2
smoothSolver:  Solving for Uz, Initial residual = 0.0336364, Final residual = 0.00148735, No Iterations 2
GAMG:  Solving for p, Initial residual = 0.0609298, Final residual = 0.00491998, No Iterations 2
time step continuity errors : sum local = 4.23427e-05, global = 5.08507e-06, cumulative = 1.70331e-05
smoothSolver:  Solving for omega, Initial residual = 0.000532375, Final residual = 1.82011e-05, No Iterations 1
smoothSolver:  Solving for k, Initial residual = 0.0269088, Final residual = 0.000852669, No Iterations 1
ExecutionTime = 7.86 s  ClockTime = 8 s

forces forcesFish write:
    Sum of forces
        Total    : (0.21215 0.00123491 -0.000462267)
        Pressure : (-0.0134185 0.00124349 -0.000470352)
        Viscous  : (0.225568 -8.5723e-06 8.0851e-06)
    Sum of moments
        Total    : (-1.66369e-05 0.000370872 -0.000350986)
        Pressure : (-1.69389e-05 0.000368285 -0.000466925)
        Viscous  : (3.01994e-07 2.58636e-06 0.000115939)
    writing force and moment files.

Time = 13

smoothSolver:  Solving for Ux, Initial residual = 0.000541882, Final residual = 1.28558e-05, No Iterations 2
smoothSolver:  Solving for Uy, Initial residual = 0.0240488, Final residual = 0.00077234, No Iterations 2
smoothSolver:  Solving for Uz, Initial residual = 0.0270901, Final residual = 0.000874927, No Iterations 2
GAMG:  Solving for p, Initial residual = 0.0585068, Final residual = 0.00461223, No Iterations 2
time step continuity errors : sum local = 3.6501e-05, global = 4.65503e-06, cumulative = 2.16881e-05
smoothSolver:  Solving for omega, Initial residual = 0.000460773, Final residual = 1.5975e-05, No Iterations 1
smoothSolver:  Solving for k, Initial residual = 0.0232839, Final residual = 0.000743039, No Iterations 1
ExecutionTime = 8.37 s  ClockTime = 8 s

forces forcesFish write:
    Sum of forces
        Total    : (0.288484 0.00249601 0.000490624)
        Pressure : (0.0627246 0.0024719 0.000476376)
        Viscous  : (0.22576 2.4116e-05 1.42477e-05)
    Sum of moments
        Total    : (-2.35667e-05 -6.102e-05 0.00178625)
        Pressure : (-2.38214e-05 -6.31503e-05 0.00166281)
        Viscous  : (2.54742e-07 2.13035e-06 0.000123442)
    writing force and moment files.

Time = 14

smoothSolver:  Solving for Ux, Initial residual = 0.000476561, Final residual = 1.13612e-05, No Iterations 2
smoothSolver:  Solving for Uy, Initial residual = 0.0321715, Final residual = 0.00108222, No Iterations 2
smoothSolver:  Solving for Uz, Initial residual = 0.0268152, Final residual = 0.0009359, No Iterations 2
GAMG:  Solving for p, Initial residual = 0.0577658, Final residual = 0.0040315, No Iterations 2
time step continuity errors : sum local = 2.9256e-05, global = 3.90102e-06, cumulative = 2.55891e-05
smoothSolver:  Solving for omega, Initial residual = 0.000400816, Final residual = 1.40714e-05, No Iterations 1
smoothSolver:  Solving for k, Initial residual = 0.0202991, Final residual = 0.000651465, No Iterations 1
ExecutionTime = 8.94 s  ClockTime = 9 s

forces forcesFish write:
    Sum of forces
        Total    : (0.340044 0.0034769 0.00158755)
        Pressure : (0.114326 0.0034241 0.00156629)
        Viscous  : (0.225718 5.27982e-05 2.12554e-05)
    Sum of moments
        Total    : (-2.66271e-05 -0.000461874 0.00319739)
        Pressure : (-2.68564e-05 -0.000463489 0.00306708)
        Viscous  : (2.2935e-07 1.61492e-06 0.000130308)
    writing force and moment files.

Time = 15

smoothSolver:  Solving for Ux, Initial residual = 0.000451272, Final residual = 1.03023e-05, No Iterations 2
smoothSolver:  Solving for Uy, Initial residual = 0.0447452, Final residual = 0.00163262, No Iterations 2
smoothSolver:  Solving for Uz, Initial residual = 0.0271848, Final residual = 0.00108085, No Iterations 2
GAMG:  Solving for p, Initial residual = 0.0592381, Final residual = 0.00364012, No Iterations 2
time step continuity errors : sum local = 2.46496e-05, global = 3.05576e-06, cumulative = 2.86449e-05
smoothSolver:  Solving for omega, Initial residual = 0.000350046, Final residual = 1.24252e-05, No Iterations 1
smoothSolver:  Solving for k, Initial residual = 0.0178007, Final residual = 0.00057386, No Iterations 1
ExecutionTime = 9.47 s  ClockTime = 9 s

forces forcesFish write:
    Sum of forces
        Total    : (0.363815 0.00418497 0.00255732)
        Pressure : (0.138312 0.00410991 0.00252998)
        Viscous  : (0.225504 7.50668e-05 2.73312e-05)
    Sum of moments
        Total    : (-2.51417e-05 -0.000745291 0.00383541)
        Pressure : (-2.53661e-05 -0.000746438 0.00369929)
        Viscous  : (2.2434e-07 1.14687e-06 0.00013612)
    writing force and moment files.

Time = 16

smoothSolver:  Solving for Ux, Initial residual = 0.000428459, Final residual = 9.25646e-06, No Iterations 2
smoothSolver:  Solving for Uy, Initial residual = 0.0326949, Final residual = 0.00117766, No Iterations 2
smoothSolver:  Solving for Uz, Initial residual = 0.0254301, Final residual = 0.00101086, No Iterations 2
GAMG:  Solving for p, Initial residual = 0.0617846, Final residual = 0.00381151, No Iterations 2
time step continuity errors : sum local = 2.4882e-05, global = 2.09659e-06, cumulative = 3.07415e-05
smoothSolver:  Solving for omega, Initial residual = 0.000306651, Final residual = 1.09919e-05, No Iterations 1
smoothSolver:  Solving for k, Initial residual = 0.0156851, Final residual = 0.000507492, No Iterations 1
ExecutionTime = 9.98 s  ClockTime = 10 s

forces forcesFish write:
    Sum of forces
        Total    : (0.365258 0.00474798 0.00312914)
        Pressure : (0.14009 0.00465777 0.00309782)
        Viscous  : (0.225168 9.02147e-05 3.13134e-05)
    Sum of moments
        Total    : (-1.95089e-05 -0.000855322 0.00387792)
        Pressure : (-1.97423e-05 -0.000856129 0.00373712)
        Viscous  : (2.33474e-07 8.06658e-07 0.00014081)
    writing force and moment files.

Time = 17

smoothSolver:  Solving for Ux, Initial residual = 0.00039426, Final residual = 3.90886e-05, No Iterations 1
smoothSolver:  Solving for Uy, Initial residual = 0.0246984, Final residual = 0.000813852, No Iterations 2
smoothSolver:  Solving for Uz, Initial residual = 0.0221813, Final residual = 0.000802154, No Iterations 2
GAMG:  Solving for p, Initial residual = 0.0626548, Final residual = 0.00371229, No Iterations 2
time step continuity errors : sum local = 2.40159e-05, global = 7.86799e-07, cumulative = 3.15283e-05
smoothSolver:  Solving for omega, Initial residual = 0.000269221, Final residual = 9.72312e-06, No Iterations 1
smoothSolver:  Solving for k, Initial residual = 0.0138831, Final residual = 0.00045055, No Iterations 1
ExecutionTime = 10.51 s  ClockTime = 10 s

forces forcesFish write:
    Sum of forces
        Total    : (0.352989 0.0053738 0.0030603)
        Pressure : (0.128093 0.00527455 0.00302755)
        Viscous  : (0.224896 9.92542e-05 3.27434e-05)
    Sum of moments
        Total    : (-1.13852e-05 -0.000770398 0.00356434)
        Pressure : (-1.16335e-05 -0.000771048 0.00341969)
        Viscous  : (2.48324e-07 6.50257e-07 0.000144646)
    writing force and moment files.

Time = 18

smoothSolver:  Solving for Ux, Initial residual = 0.000366051, Final residual = 3.5349e-05, No Iterations 1
smoothSolver:  Solving for Uy, Initial residual = 0.0193551, Final residual = 0.000550089, No Iterations 2
smoothSolver:  Solving for Uz, Initial residual = 0.018448, Final residual = 0.000561459, No Iterations 2
GAMG:  Solving for p, Initial residual = 0.0608727, Final residual = 0.00338157, No Iterations 2
time step continuity errors : sum local = 2.21676e-05, global = -5.27466e-07, cumulative = 3.10008e-05
smoothSolver:  Solving for omega, Initial residual = 0.000236747, Final residual = 8.59527e-06, No Iterations 1
smoothSolver:  Solving for k, Initial residual = 0.0123356, Final residual = 0.00040133, No Iterations 1
ExecutionTime = 11.01 s  ClockTime = 11 s

forces forcesFish write:
    Sum of forces
        Total    : (0.334261 0.00623386 0.00234902)
        Pressure : (0.109686 0.00613001 0.00231713)
        Viscous  : (0.224575 0.000103854 3.18896e-05)
    Sum of moments
        Total    : (-2.22801e-06 -0.000519895 0.00309926)
        Pressure : (-2.48846e-06 -0.000520568 0.00295163)
        Viscous  : (2.60451e-07 6.72889e-07 0.000147627)
    writing force and moment files.

Time = 19

smoothSolver:  Solving for Ux, Initial residual = 0.000336148, Final residual = 3.15432e-05, No Iterations 1
smoothSolver:  Solving for Uy, Initial residual = 0.0160482, Final residual = 0.000365685, No Iterations 2
smoothSolver:  Solving for Uz, Initial residual = 0.0160225, Final residual = 0.000390938, No Iterations 2
GAMG:  Solving for p, Initial residual = 0.0560179, Final residual = 0.00297021, No Iterations 2
time step continuity errors : sum local = 2.00273e-05, global = -1.60201e-06, cumulative = 2.93988e-05
smoothSolver:  Solving for omega, Initial residual = 0.000208454, Final residual = 7.59651e-06, No Iterations 1
smoothSolver:  Solving for k, Initial residual = 0.0109937, Final residual = 0.000358373, No Iterations 1
ExecutionTime = 11.56 s  ClockTime = 12 s

forces forcesFish write:
    Sum of forces
        Total    : (0.315418 0.00732034 0.00118017)
        Pressure : (0.0911993 0.00721416 0.00115088)
        Viscous  : (0.224219 0.000106185 2.92892e-05)
    Sum of moments
        Total    : (6.40625e-06 -0.000173473 0.00264502)
        Pressure : (6.14159e-06 -0.000174312 0.00249507)
        Viscous  : (2.64667e-07 8.3927e-07 0.000149947)
    writing force and moment files.

Time = 20

smoothSolver:  Solving for Ux, Initial residual = 0.00030261, Final residual = 2.8017e-05, No Iterations 1
smoothSolver:  Solving for Uy, Initial residual = 0.0145494, Final residual = 0.000300079, No Iterations 2
smoothSolver:  Solving for Uz, Initial residual = 0.0151226, Final residual = 0.000370441, No Iterations 2
GAMG:  Solving for p, Initial residual = 0.0490181, Final residual = 0.00258751, No Iterations 2
time step continuity errors : sum local = 1.79868e-05, global = -2.44875e-06, cumulative = 2.69501e-05
smoothSolver:  Solving for omega, Initial residual = 0.000183719, Final residual = 6.71626e-06, No Iterations 1
smoothSolver:  Solving for k, Initial residual = 0.00982257, Final residual = 0.000320651, No Iterations 1
ExecutionTime = 12.14 s  ClockTime = 12 s

forces forcesFish write:
    Sum of forces
        Total    : (0.300725 0.00845575 -0.000155277)
        Pressure : (0.0768935 0.00834762 -0.000181293)
        Viscous  : (0.223831 0.000108136 2.60165e-05)
    Sum of moments
        Total    : (1.30751e-05 0.00018229 0.00229309)
        Pressure : (1.28156e-05 0.0001812 0.00214124)
        Viscous  : (2.59551e-07 1.08939e-06 0.000151843)
    writing force and moment files.

Time = 21

smoothSolver:  Solving for Ux, Initial residual = 0.000266263, Final residual = 2.49794e-05, No Iterations 1
smoothSolver:  Solving for Uy, Initial residual = 0.0141365, Final residual = 0.00031608, No Iterations 2
smoothSolver:  Solving for Uz, Initial residual = 0.0146452, Final residual = 0.00041067, No Iterations 2
GAMG:  Solving for p, Initial residual = 0.0442221, Final residual = 0.00232614, No Iterations 2
time step continuity errors : sum local = 1.65285e-05, global = -3.14419e-06, cumulative = 2.38059e-05
smoothSolver:  Solving for omega, Initial residual = 0.000162009, Final residual = 5.94322e-06, No Iterations 1
smoothSolver:  Solving for k, Initial residual = 0.00879634, Final residual = 0.000287405, No Iterations 1
ExecutionTime = 12.75 s  ClockTime = 13 s

forces forcesFish write:
    Sum of forces
        Total    : (0.292021 0.00938977 -0.00136215)
        Pressure : (0.068607 0.00927891 -0.00138515)
        Viscous  : (0.223414 0.000110856 2.30019e-05)
    Sum of moments
        Total    : (1.67951e-05 0.000470765 0.00206676)
        Pressure : (1.65503e-05 0.000469427 0.00191323)
        Viscous  : (2.44748e-07 1.33866e-06 0.000153524)
    writing force and moment files.

Time = 22

smoothSolver:  Solving for Ux, Initial residual = 0.000230871, Final residual = 2.23725e-05, No Iterations 1
smoothSolver:  Solving for Uy, Initial residual = 0.0139467, Final residual = 0.000330482, No Iterations 2
smoothSolver:  Solving for Uz, Initial residual = 0.0140965, Final residual = 0.000421229, No Iterations 2
GAMG:  Solving for p, Initial residual = 0.041426, Final residual = 0.00222538, No Iterations 2
time step continuity errors : sum local = 1.59806e-05, global = -3.62793e-06, cumulative = 2.01779e-05
smoothSolver:  Solving for omega, Initial residual = 0.000142878, Final residual = 5.26388e-06, No Iterations 1
smoothSolver:  Solving for k, Initial residual = 0.00789125, Final residual = 0.000257934, No Iterations 1
ExecutionTime = 13.31 s  ClockTime = 13 s

forces forcesFish write:
    Sum of forces
        Total    : (0.289027 0.00994671 -0.00226005)
        Pressure : (0.0660608 0.00983201 -0.00228087)
        Viscous  : (0.222966 0.0001147 2.08201e-05)
    Sum of moments
        Total    : (1.73537e-05 0.000653149 0.00194315)
        Pressure : (1.71287e-05 0.000651624 0.00178804)
        Viscous  : (2.25044e-07 1.52531e-06 0.000155104)
    writing force and moment files.

Time = 23

smoothSolver:  Solving for Ux, Initial residual = 0.000200354, Final residual = 1.99958e-05, No Iterations 1
smoothSolver:  Solving for Uy, Initial residual = 0.0134633, Final residual = 0.000315848, No Iterations 2
smoothSolver:  Solving for Uz, Initial residual = 0.0132177, Final residual = 0.000386934, No Iterations 2
GAMG:  Solving for p, Initial residual = 0.0393484, Final residual = 0.00210251, No Iterations 2
time step continuity errors : sum local = 1.50992e-05, global = -3.80301e-06, cumulative = 1.63749e-05
smoothSolver:  Solving for omega, Initial residual = 0.000125963, Final residual = 4.66881e-06, No Iterations 1
smoothSolver:  Solving for k, Initial residual = 0.00708647, Final residual = 0.000231613, No Iterations 1
ExecutionTime = 13.83 s  ClockTime = 14 s

forces forcesFish write:
    Sum of forces
        Total    : (0.290293 0.0100717 -0.0027877)
        Pressure : (0.067805 0.00995228 -0.00280755)
        Viscous  : (0.222488 0.000119395 1.98467e-05)
    Sum of moments
        Total    : (1.52373e-05 0.000726228 0.00187905)
        Pressure : (1.50345e-05 0.000724619 0.00172243)
        Viscous  : (2.02742e-07 1.6084e-06 0.000156622)
    writing force and moment files.

Time = 24

smoothSolver:  Solving for Ux, Initial residual = 0.0001787, Final residual = 3.73359e-06, No Iterations 2
smoothSolver:  Solving for Uy, Initial residual = 0.0127783, Final residual = 0.000272593, No Iterations 2
smoothSolver:  Solving for Uz, Initial residual = 0.0120829, Final residual = 0.000310841, No Iterations 2
GAMG:  Solving for p, Initial residual = 0.0372883, Final residual = 0.00193929, No Iterations 2
time step continuity errors : sum local = 1.37865e-05, global = -3.70769e-06, cumulative = 1.26672e-05
smoothSolver:  Solving for omega, Initial residual = 0.000110967, Final residual = 4.14631e-06, No Iterations 1
smoothSolver:  Solving for k, Initial residual = 0.00636631, Final residual = 0.000207966, No Iterations 1
ExecutionTime = 14.43 s  ClockTime = 14 s

forces forcesFish write:
    Sum of forces
        Total    : (0.293911 0.00970837 -0.00288076)
        Pressure : (0.0720228 0.00958386 -0.00290086)
        Viscous  : (0.221888 0.000124505 2.01055e-05)
    Sum of moments
        Total    : (1.11754e-05 0.000688713 0.0018244)
        Pressure : (1.09942e-05 0.000687145 0.00166651)
        Viscous  : (1.81264e-07 1.56803e-06 0.000157885)
    writing force and moment files.

Time = 25

smoothSolver:  Solving for Ux, Initial residual = 0.000161664, Final residual = 1.57502e-05, No Iterations 1
smoothSolver:  Solving for Uy, Initial residual = 0.011948, Final residual = 0.00113578, No Iterations 1
smoothSolver:  Solving for Uz, Initial residual = 0.0109455, Final residual = 0.00107939, No Iterations 1
GAMG:  Solving for p, Initial residual = 0.0351534, Final residual = 0.00173128, No Iterations 2
time step continuity errors : sum local = 1.20979e-05, global = -3.37433e-06, cumulative = 9.29292e-06
smoothSolver:  Solving for omega, Initial residual = 9.76219e-05, Final residual = 3.68201e-06, No Iterations 1
smoothSolver:  Solving for k, Initial residual = 0.00572052, Final residual = 0.000186729, No Iterations 1
ExecutionTime = 14.92 s  ClockTime = 15 s

forces forcesFish write:
    Sum of forces
        Total    : (0.298094 0.00898508 -0.00259929)
        Pressure : (0.0767479 0.00885585 -0.00262052)
        Viscous  : (0.221346 0.000129231 2.123e-05)
    Sum of moments
        Total    : (6.3059e-06 0.00057125 0.00175873)
        Pressure : (6.1384e-06 0.000569805 0.00159979)
        Viscous  : (1.67496e-07 1.44506e-06 0.000158944)
    writing force and moment files.

Time = 26

smoothSolver:  Solving for Ux, Initial residual = 0.000159633, Final residual = 1.45948e-05, No Iterations 1
smoothSolver:  Solving for Uy, Initial residual = 0.0111165, Final residual = 0.00101597, No Iterations 1
smoothSolver:  Solving for Uz, Initial residual = 0.0101703, Final residual = 0.000895582, No Iterations 1
GAMG:  Solving for p, Initial residual = 0.0335914, Final residual = 0.00155062, No Iterations 2
time step continuity errors : sum local = 1.06379e-05, global = -2.88092e-06, cumulative = 6.412e-06
smoothSolver:  Solving for omega, Initial residual = 8.57202e-05, Final residual = 3.26914e-06, No Iterations 1
smoothSolver:  Solving for k, Initial residual = 0.0051385, Final residual = 0.000167582, No Iterations 1
ExecutionTime = 15.4 s  ClockTime = 15 s

forces forcesFish write:
    Sum of forces
        Total    : (0.301709 0.00802064 -0.00203243)
        Pressure : (0.0809274 0.00788705 -0.00205519)
        Viscous  : (0.220781 0.000133596 2.27657e-05)
    Sum of moments
        Total    : (1.45411e-06 0.000401369 0.00167642)
        Pressure : (1.29763e-06 0.000400104 0.00151651)
        Viscous  : (1.56473e-07 1.26503e-06 0.000159905)
    writing force and moment files.

Time = 27

smoothSolver:  Solving for Ux, Initial residual = 0.000159054, Final residual = 1.35803e-05, No Iterations 1
smoothSolver:  Solving for Uy, Initial residual = 0.00987561, Final residual = 0.00089488, No Iterations 1
smoothSolver:  Solving for Uz, Initial residual = 0.00954663, Final residual = 0.000828824, No Iterations 1
GAMG:  Solving for p, Initial residual = 0.0317954, Final residual = 0.00141313, No Iterations 2
time step continuity errors : sum local = 9.53458e-06, global = -2.27739e-06, cumulative = 4.13461e-06
smoothSolver:  Solving for omega, Initial residual = 7.50857e-05, Final residual = 2.90182e-06, No Iterations 1
smoothSolver:  Solving for k, Initial residual = 0.00461153, Final residual = 0.000150263, No Iterations 1
ExecutionTime = 15.87 s  ClockTime = 16 s

forces forcesFish write:
    Sum of forces
        Total    : (0.304149 0.00697573 -0.00130984)
        Pressure : (0.0839485 0.00683845 -0.00133429)
        Viscous  : (0.2202 0.000137277 2.44505e-05)
    Sum of moments
        Total    : (-2.64103e-06 0.000212366 0.00158388)
        Pressure : (-2.78967e-06 0.000211318 0.00142315)
        Viscous  : (1.48639e-07 1.04811e-06 0.000160726)
    writing force and moment files.

Time = 28

smoothSolver:  Solving for Ux, Initial residual = 0.00015461, Final residual = 1.25478e-05, No Iterations 1
smoothSolver:  Solving for Uy, Initial residual = 0.00846056, Final residual = 0.000767668, No Iterations 1
smoothSolver:  Solving for Uz, Initial residual = 0.00873282, Final residual = 0.00077595, No Iterations 1
GAMG:  Solving for p, Initial residual = 0.0299051, Final residual = 0.00134997, No Iterations 2
time step continuity errors : sum local = 8.99843e-06, global = -1.61966e-06, cumulative = 2.51495e-06
smoothSolver:  Solving for omega, Initial residual = 6.55737e-05, Final residual = 2.57455e-06, No Iterations 1
smoothSolver:  Solving for k, Initial residual = 0.00413123, Final residual = 0.000134518, No Iterations 1
ExecutionTime = 16.34 s  ClockTime = 16 s

forces forcesFish write:
    Sum of forces
        Total    : (0.305235 0.00600458 -0.000565795)
        Pressure : (0.0856266 0.00586439 -0.000591831)
        Viscous  : (0.219609 0.000140198 2.60358e-05)
    Sum of moments
        Total    : (-5.49779e-06 3.48736e-05 0.00149329)
        Pressure : (-5.64097e-06 3.40512e-05 0.00133191)
        Viscous  : (1.4318e-07 8.22455e-07 0.000161372)
    writing force and moment files.

Time = 29

smoothSolver:  Solving for Ux, Initial residual = 0.000146086, Final residual = 1.15253e-05, No Iterations 1
smoothSolver:  Solving for Uy, Initial residual = 0.00713277, Final residual = 0.000640871, No Iterations 1
smoothSolver:  Solving for Uz, Initial residual = 0.00773876, Final residual = 0.000700831, No Iterations 1
GAMG:  Solving for p, Initial residual = 0.028471, Final residual = 0.00130754, No Iterations 2
time step continuity errors : sum local = 8.66058e-06, global = -8.91449e-07, cumulative = 1.6235e-06
smoothSolver:  Solving for omega, Initial residual = 5.70665e-05, Final residual = 2.28273e-06, No Iterations 1
smoothSolver:  Solving for k, Initial residual = 0.00369398, Final residual = 0.000120242, No Iterations 1
ExecutionTime = 16.84 s  ClockTime = 17 s

forces forcesFish write:
    Sum of forces
        Total    : (0.30511 0.00520425 0.000104106)
        Pressure : (0.0860978 0.00506184 7.68768e-05)
        Viscous  : (0.219012 0.000142407 2.72294e-05)
    Sum of moments
        Total    : (-6.96816e-06 -0.000112064 0.00141439)
        Pressure : (-7.10568e-06 -0.00011268 0.00125256)
        Viscous  : (1.37511e-07 6.16009e-07 0.000161832)
    writing force and moment files.

Time = 30

smoothSolver:  Solving for Ux, Initial residual = 0.000135224, Final residual = 1.05372e-05, No Iterations 1
smoothSolver:  Solving for Uy, Initial residual = 0.00608961, Final residual = 0.000526059, No Iterations 1
smoothSolver:  Solving for Uz, Initial residual = 0.00690224, Final residual = 0.000611701, No Iterations 1
GAMG:  Solving for p, Initial residual = 0.0266523, Final residual = 0.00121566, No Iterations 2
time step continuity errors : sum local = 8.04695e-06, global = -1.34135e-07, cumulative = 1.48937e-06
smoothSolver:  Solving for omega, Initial residual = 4.94661e-05, Final residual = 2.02229e-06, No Iterations 1
smoothSolver:  Solving for k, Initial residual = 0.00329503, Final residual = 0.000107289, No Iterations 1
ExecutionTime = 17.33 s  ClockTime = 17 s

forces forcesFish write:
    Sum of forces
        Total    : (0.304071 0.00461177 0.000647834)
        Pressure : (0.0856545 0.00446778 0.00061985)
        Viscous  : (0.218417 0.000143992 2.7984e-05)
    Sum of moments
        Total    : (-7.1304e-06 -0.000220364 0.00135256)
        Pressure : (-7.26133e-06 -0.000220811 0.00119045)
        Viscous  : (1.30939e-07 4.47016e-07 0.000162118)
    writing force and moment files.

Time = 31

smoothSolver:  Solving for Ux, Initial residual = 0.000124035, Final residual = 9.64322e-06, No Iterations 1
smoothSolver:  Solving for Uy, Initial residual = 0.00530278, Final residual = 0.000426395, No Iterations 1
smoothSolver:  Solving for Uz, Initial residual = 0.00627902, Final residual = 0.000521338, No Iterations 1
GAMG:  Solving for p, Initial residual = 0.0244579, Final residual = 0.00109295, No Iterations 2
time step continuity errors : sum local = 7.26124e-06, global = 5.37906e-07, cumulative = 2.02727e-06
smoothSolver:  Solving for omega, Initial residual = 4.26926e-05, Final residual = 1.79051e-06, No Iterations 1
smoothSolver:  Solving for k, Initial residual = 0.00293053, Final residual = 9.55389e-05, No Iterations 1
ExecutionTime = 17.8 s  ClockTime = 18 s

forces forcesFish write:
    Sum of forces
        Total    : (0.302461 0.00424654 0.00102249)
        Pressure : (0.0846336 0.00410136 0.000994123)
        Viscous  : (0.217827 0.000145178 2.8372e-05)
    Sum of moments
        Total    : (-6.17318e-06 -0.000284471 0.00131273)
        Pressure : (-6.29644e-06 -0.000284793 0.00115049)
        Viscous  : (1.2326e-07 3.21512e-07 0.000162242)
    writing force and moment files.

Time = 32

smoothSolver:  Solving for Ux, Initial residual = 0.000114016, Final residual = 8.86666e-06, No Iterations 1
smoothSolver:  Solving for Uy, Initial residual = 0.00471552, Final residual = 0.000344443, No Iterations 1
smoothSolver:  Solving for Uz, Initial residual = 0.00581964, Final residual = 0.000443581, No Iterations 1
GAMG:  Solving for p, Initial residual = 0.0224895, Final residual = 0.000969358, No Iterations 2
time step continuity errors : sum local = 6.48206e-06, global = 1.05282e-06, cumulative = 3.08009e-06
smoothSolver:  Solving for omega, Initial residual = 3.66779e-05, Final residual = 1.5855e-06, No Iterations 1
smoothSolver:  Solving for k, Initial residual = 0.00259703, Final residual = 8.48764e-05, No Iterations 1
ExecutionTime = 18.33 s  ClockTime = 18 s

forces forcesFish write:
    Sum of forces
        Total    : (0.300605 0.00410764 0.00120106)
        Pressure : (0.0833601 0.00396155 0.00117268)
        Viscous  : (0.217245 0.000146089 2.83863e-05)
    Sum of moments
        Total    : (-4.39893e-06 -0.00030249 0.00129745)
        Pressure : (-4.51279e-06 -0.000302729 0.00113522)
        Viscous  : (1.13859e-07 2.39257e-07 0.000162235)
    writing force and moment files.

Time = 33

smoothSolver:  Solving for Ux, Initial residual = 0.000106146, Final residual = 8.22043e-06, No Iterations 1
smoothSolver:  Solving for Uy, Initial residual = 0.00430694, Final residual = 0.000286315, No Iterations 1
smoothSolver:  Solving for Uz, Initial residual = 0.00546979, Final residual = 0.000394472, No Iterations 1
GAMG:  Solving for p, Initial residual = 0.0208676, Final residual = 0.000836702, No Iterations 2
time step continuity errors : sum local = 5.64103e-06, global = 1.29769e-06, cumulative = 4.37778e-06
smoothSolver:  Solving for omega, Initial residual = 3.13605e-05, Final residual = 1.40511e-06, No Iterations 1
smoothSolver:  Solving for k, Initial residual = 0.00229177, Final residual = 7.5204e-05, No Iterations 1
ExecutionTime = 18.8 s  ClockTime = 19 s

forces forcesFish write:
    Sum of forces
        Total    : (0.298769 0.00416398 0.00118707)
        Pressure : (0.0820953 0.00401711 0.00115894)
        Viscous  : (0.216674 0.000146876 2.81373e-05)
    Sum of moments
        Total    : (-2.18465e-06 -0.000278668 0.00130459)
        Pressure : (-2.28723e-06 -0.00027886 0.00114246)
        Viscous  : (1.02578e-07 1.91964e-07 0.000162128)
    writing force and moment files.

Time = 34

smoothSolver:  Solving for Ux, Initial residual = 9.73818e-05, Final residual = 7.63185e-06, No Iterations 1
smoothSolver:  Solving for Uy, Initial residual = 0.00404336, Final residual = 0.000253643, No Iterations 1
smoothSolver:  Solving for Uz, Initial residual = 0.00519886, Final residual = 0.000368183, No Iterations 1
GAMG:  Solving for p, Initial residual = 0.0192852, Final residual = 0.000695251, No Iterations 2
time step continuity errors : sum local = 4.72997e-06, global = 1.20414e-06, cumulative = 5.58192e-06
smoothSolver:  Solving for omega, Initial residual = 2.66839e-05, Final residual = 1.24682e-06, No Iterations 1
smoothSolver:  Solving for k, Initial residual = 0.00201345, Final residual = 6.64686e-05, No Iterations 1
ExecutionTime = 19.26 s  ClockTime = 19 s

forces forcesFish write:
    Sum of forces
        Total    : (0.297125 0.00436213 0.00101044)
        Pressure : (0.0810093 0.00421444 0.000982681)
        Viscous  : (0.216115 0.000147692 2.77568e-05)
    Sum of moments
        Total    : (9.37588e-08 -0.000222131 0.00132788)
        Pressure : (3.79868e-09 -0.000222297 0.00116595)
        Viscous  : (8.99601e-08 1.66025e-07 0.000161938)
    writing force and moment files.

Time = 35

smoothSolver:  Solving for Ux, Initial residual = 8.54695e-05, Final residual = 6.99054e-06, No Iterations 1
smoothSolver:  Solving for Uy, Initial residual = 0.00378469, Final residual = 0.000233326, No Iterations 1
smoothSolver:  Solving for Uz, Initial residual = 0.00490355, Final residual = 0.000342463, No Iterations 1
GAMG:  Solving for p, Initial residual = 0.0176923, Final residual = 0.00059369, No Iterations 2
time step continuity errors : sum local = 4.07468e-06, global = 9.30018e-07, cumulative = 6.51194e-06
smoothSolver:  Solving for omega, Initial residual = 2.25952e-05, Final residual = 1.10831e-06, No Iterations 1
smoothSolver:  Solving for k, Initial residual = 0.00176033, Final residual = 5.86013e-05, No Iterations 1
ExecutionTime = 19.73 s  ClockTime = 20 s

forces forcesFish write:
    Sum of forces
        Total    : (0.295753 0.00463247 0.000721281)
        Pressure : (0.0801835 0.00448394 0.000693883)
        Viscous  : (0.215569 0.000148535 2.73981e-05)
    Sum of moments
        Total    : (2.08973e-06 -0.000145876 0.00135746)
        Pressure : (2.01245e-06 -0.000146023 0.00119576)
        Viscous  : (7.72833e-08 1.46914e-07 0.000161692)
    writing force and moment files.

Time = 36

smoothSolver:  Solving for Ux, Initial residual = 7.3405e-05, Final residual = 6.32124e-06, No Iterations 1
smoothSolver:  Solving for Uy, Initial residual = 0.00349201, Final residual = 0.000216834, No Iterations 1
smoothSolver:  Solving for Uz, Initial residual = 0.00454451, Final residual = 0.000309373, No Iterations 1
GAMG:  Solving for p, Initial residual = 0.016373, Final residual = 0.00053753, No Iterations 2
time step continuity errors : sum local = 3.71622e-06, global = 8.22759e-07, cumulative = 7.33469e-06
smoothSolver:  Solving for omega, Initial residual = 1.90429e-05, Final residual = 9.87334e-07, No Iterations 1
smoothSolver:  Solving for k, Initial residual = 0.00153098, Final residual = 5.15418e-05, No Iterations 1
ExecutionTime = 20.21 s  ClockTime = 20 s

forces forcesFish write:
    Sum of forces
        Total    : (0.294667 0.00489234 0.000390878)
        Pressure : (0.0796296 0.00474299 0.000363767)
        Viscous  : (0.215037 0.000149354 2.7111e-05)
    Sum of moments
        Total    : (3.51485e-06 -6.6815e-05 0.00138062)
        Pressure : (3.45001e-06 -6.69406e-05 0.00121921)
        Viscous  : (6.48475e-08 1.25622e-07 0.000161412)
    writing force and moment files.

Time = 37

smoothSolver:  Solving for Ux, Initial residual = 6.8089e-05, Final residual = 5.86807e-06, No Iterations 1
smoothSolver:  Solving for Uy, Initial residual = 0.00317991, Final residual = 0.000199517, No Iterations 1
smoothSolver:  Solving for Uz, Initial residual = 0.00413758, Final residual = 0.000274335, No Iterations 1
GAMG:  Solving for p, Initial residual = 0.0152424, Final residual = 0.000506124, No Iterations 2
time step continuity errors : sum local = 3.51326e-06, global = 8.33062e-07, cumulative = 8.16776e-06
smoothSolver:  Solving for omega, Initial residual = 1.59777e-05, Final residual = 8.81803e-07, No Iterations 1
smoothSolver:  Solving for k, Initial residual = 0.00132414, Final residual = 4.52355e-05, No Iterations 1
ExecutionTime = 20.7 s  ClockTime = 21 s

forces forcesFish write:
    Sum of forces
        Total    : (0.29383 0.00507626 9.08613e-05)
        Pressure : (0.0793124 0.0049262 6.38957e-05)
        Viscous  : (0.214517 0.000150062 2.69656e-05)
    Sum of moments
        Total    : (4.23895e-06 -1.08463e-07 0.00138796)
        Pressure : (4.18548e-06 -2.01315e-07 0.00122687)
        Viscous  : (5.34654e-08 9.28514e-08 0.000161095)
    writing force and moment files.

Time = 38

smoothSolver:  Solving for Ux, Initial residual = 6.42645e-05, Final residual = 5.49475e-06, No Iterations 1
smoothSolver:  Solving for Uy, Initial residual = 0.0028701, Final residual = 0.000179656, No Iterations 1
smoothSolver:  Solving for Uz, Initial residual = 0.00374063, Final residual = 0.000238126, No Iterations 1
GAMG:  Solving for p, Initial residual = 0.0141644, Final residual = 0.000502867, No Iterations 2
time step continuity errors : sum local = 3.49209e-06, global = 6.82814e-07, cumulative = 8.85057e-06
smoothSolver:  Solving for omega, Initial residual = 1.33531e-05, Final residual = 7.89736e-07, No Iterations 1
smoothSolver:  Solving for k, Initial residual = 0.00113841, Final residual = 3.96202e-05, No Iterations 1
ExecutionTime = 21.17 s  ClockTime = 21 s

forces forcesFish write:
    Sum of forces
        Total    : (0.29318 0.00516179 -0.000139553)
        Pressure : (0.0791686 0.00501122 -0.000166536)
        Viscous  : (0.214011 0.000150567 2.6983e-05)
    Sum of moments
        Total    : (4.31659e-06 4.76124e-05 0.0013774)
        Pressure : (4.27296e-06 4.75662e-05 0.00121666)
        Viscous  : (4.36238e-08 4.62173e-08 0.000160739)
    writing force and moment files.

Time = 39

smoothSolver:  Solving for Ux, Initial residual = 5.98991e-05, Final residual = 5.1342e-06, No Iterations 1
smoothSolver:  Solving for Uy, Initial residual = 0.00258397, Final residual = 0.000159514, No Iterations 1
smoothSolver:  Solving for Uz, Initial residual = 0.00339559, Final residual = 0.000203291, No Iterations 1
GAMG:  Solving for p, Initial residual = 0.0131959, Final residual = 0.000492732, No Iterations 2
time step continuity errors : sum local = 3.41499e-06, global = 4.03276e-07, cumulative = 9.25385e-06
smoothSolver:  Solving for omega, Initial residual = 1.11236e-05, Final residual = 7.09597e-07, No Iterations 1
smoothSolver:  Solving for k, Initial residual = 0.000972886, Final residual = 3.46517e-05, No Iterations 1
ExecutionTime = 21.64 s  ClockTime = 22 s

forces forcesFish write:
    Sum of forces
        Total    : (0.292649 0.00515206 -0.000287929)
        Pressure : (0.0791297 0.00500127 -0.000315064)
        Viscous  : (0.213519 0.000150792 2.71358e-05)
    Sum of moments
        Total    : (3.8835e-06 7.54943e-05 0.00135063)
        Pressure : (3.84785e-06 7.55067e-05 0.0011903)
        Viscous  : (3.56494e-08 -1.23629e-08 0.00016034)
    writing force and moment files.

Time = 40

smoothSolver:  Solving for Ux, Initial residual = 5.62687e-05, Final residual = 4.82223e-06, No Iterations 1
smoothSolver:  Solving for Uy, Initial residual = 0.00234467, Final residual = 0.000142465, No Iterations 1
smoothSolver:  Solving for Uz, Initial residual = 0.00312951, Final residual = 0.000176096, No Iterations 1
GAMG:  Solving for p, Initial residual = 0.0123498, Final residual = 0.00047304, No Iterations 2
time step continuity errors : sum local = 3.26844e-06, global = 1.05684e-07, cumulative = 9.35953e-06
smoothSolver:  Solving for omega, Initial residual = 9.24415e-06, Final residual = 6.39603e-07, No Iterations 1
smoothSolver:  Solving for k, Initial residual = 0.000826532, Final residual = 3.0282e-05, No Iterations 1
ExecutionTime = 22.1 s  ClockTime = 22 s

forces forcesFish write:
    Sum of forces
        Total    : (0.292179 0.00506171 -0.00035571)
        Pressure : (0.0791387 0.00491102 -0.000383084)
        Viscous  : (0.213041 0.000150684 2.73737e-05)
    Sum of moments
        Total    : (3.10477e-06 8.52716e-05 0.00131112)
        Pressure : (3.07504e-06 8.53473e-05 0.00115123)
        Viscous  : (2.97218e-08 -7.56275e-08 0.000159894)
    writing force and moment files.

Time = 41

smoothSolver:  Solving for Ux, Initial residual = 5.37265e-05, Final residual = 4.56568e-06, No Iterations 1
smoothSolver:  Solving for Uy, Initial residual = 0.00215246, Final residual = 0.00012881, No Iterations 1
smoothSolver:  Solving for Uz, Initial residual = 0.0029158, Final residual = 0.000155378, No Iterations 1
GAMG:  Solving for p, Initial residual = 0.011589, Final residual = 0.000444683, No Iterations 2
time step continuity errors : sum local = 3.06212e-06, global = -1.55342e-07, cumulative = 9.20419e-06
smoothSolver:  Solving for omega, Initial residual = 7.67206e-06, Final residual = 5.78468e-07, No Iterations 1
smoothSolver:  Solving for k, Initial residual = 0.000698139, Final residual = 2.64591e-05, No Iterations 1
ExecutionTime = 22.57 s  ClockTime = 23 s

forces forcesFish write:
    Sum of forces
        Total    : (0.291732 0.00491352 -0.000355646)
        Pressure : (0.0791554 0.00476329 -0.00038328)
        Viscous  : (0.212577 0.00015023 2.76338e-05)
    Sum of moments
        Total    : (2.15457e-06 8.07301e-05 0.00126357)
        Pressure : (2.12928e-06 8.0869e-05 0.00110418)
        Viscous  : (2.52912e-08 -1.38863e-07 0.000159392)
    writing force and moment files.

Time = 42

smoothSolver:  Solving for Ux, Initial residual = 5.09521e-05, Final residual = 4.325e-06, No Iterations 1
smoothSolver:  Solving for Uy, Initial residual = 0.00201726, Final residual = 0.000118744, No Iterations 1
smoothSolver:  Solving for Uz, Initial residual = 0.00272484, Final residual = 0.000140704, No Iterations 1
GAMG:  Solving for p, Initial residual = 0.0108385, Final residual = 0.000406126, No Iterations 2
time step continuity errors : sum local = 2.78768e-06, global = -3.29759e-07, cumulative = 8.87443e-06
smoothSolver:  Solving for omega, Initial residual = 6.36694e-06, Final residual = 5.24825e-07, No Iterations 1
smoothSolver:  Solving for k, Initial residual = 0.000586436, Final residual = 2.31313e-05, No Iterations 1
ExecutionTime = 23.03 s  ClockTime = 23 s

forces forcesFish write:
    Sum of forces
        Total    : (0.291285 0.0047332 -0.000307841)
        Pressure : (0.0791563 0.00458377 -0.000335708)
        Viscous  : (0.212128 0.000149431 2.78671e-05)
    Sum of moments
        Total    : (1.18776e-06 6.68218e-05 0.00121293)
        Pressure : (1.16548e-06 6.70181e-05 0.0010541)
        Viscous  : (2.22809e-08 -1.96256e-07 0.000158831)
    writing force and moment files.

Time = 43

smoothSolver:  Solving for Ux, Initial residual = 4.74215e-05, Final residual = 4.073e-06, No Iterations 1
smoothSolver:  Solving for Uy, Initial residual = 0.0018963, Final residual = 0.00011021, No Iterations 1
smoothSolver:  Solving for Uz, Initial residual = 0.00255555, Final residual = 0.000131248, No Iterations 1
GAMG:  Solving for p, Initial residual = 0.0101387, Final residual = 0.000361697, No Iterations 2
time step continuity errors : sum local = 2.47601e-06, global = -3.8239e-07, cumulative = 8.49204e-06
smoothSolver:  Solving for omega, Initial residual = 5.29148e-06, Final residual = 4.77588e-07, No Iterations 1
smoothSolver:  Solving for k, Initial residual = 0.000490087, Final residual = 2.02472e-05, No Iterations 1
ExecutionTime = 23.52 s  ClockTime = 24 s

forces forcesFish write:
    Sum of forces
        Total    : (0.290828 0.00454428 -0.000234193)
        Pressure : (0.0791322 0.00439596 -0.000262234)
        Viscous  : (0.211695 0.000148317 2.80411e-05)
    Sum of moments
        Total    : (3.20757e-07 4.851e-05 0.00116353)
        Pressure : (3.00472e-07 4.87582e-05 0.00100531)
        Viscous  : (2.02849e-08 -2.48193e-07 0.000158218)
    writing force and moment files.

Time = 44

smoothSolver:  Solving for Ux, Initial residual = 4.28794e-05, Final residual = 3.80138e-06, No Iterations 1
smoothSolver:  Solving for Uy, Initial residual = 0.00177339, Final residual = 0.000102684, No Iterations 1
smoothSolver:  Solving for Uz, Initial residual = 0.00239306, Final residual = 0.000123457, No Iterations 1
GAMG:  Solving for p, Initial residual = 0.00947949, Final residual = 0.00031847, No Iterations 2
time step continuity errors : sum local = 2.17509e-06, global = -3.49979e-07, cumulative = 8.14206e-06
smoothSolver:  Solving for omega, Initial residual = 4.41064e-06, Final residual = 4.35704e-07, No Iterations 1
smoothSolver:  Solving for k, Initial residual = 0.000407694, Final residual = 1.77568e-05, No Iterations 1
ExecutionTime = 24.12 s  ClockTime = 24 s

forces forcesFish write:
    Sum of forces
        Total    : (0.290364 0.00436867 -0.000155004)
        Pressure : (0.079086 0.00422173 -0.000183122)
        Viscous  : (0.211278 0.000146939 2.81179e-05)
    Sum of moments
        Total    : (-3.53662e-07 3.0274e-05 0.00111955)
        Pressure : (-3.72505e-07 3.05623e-05 0.00096199)
        Viscous  : (1.88434e-08 -2.88316e-07 0.000157561)
    writing force and moment files.

Time = 45

smoothSolver:  Solving for Ux, Initial residual = 3.8119e-05, Final residual = 3.51691e-06, No Iterations 1
smoothSolver:  Solving for Uy, Initial residual = 0.00165268, Final residual = 9.49533e-05, No Iterations 1
smoothSolver:  Solving for Uz, Initial residual = 0.00224334, Final residual = 0.000115059, No Iterations 1
GAMG:  Solving for p, Initial residual = 0.00883303, Final residual = 0.000281636, No Iterations 2
time step continuity errors : sum local = 1.91979e-06, global = -3.33658e-07, cumulative = 7.8084e-06
smoothSolver:  Solving for omega, Initial residual = 3.69248e-06, Final residual = 8.43838e-08, No Iterations 2
smoothSolver:  Solving for k, Initial residual = 0.000337781, Final residual = 1.5618e-05, No Iterations 1
ExecutionTime = 24.79 s  ClockTime = 25 s

forces forcesFish write:
    Sum of forces
        Total    : (0.289902 0.00422577 -8.76275e-05)
        Pressure : (0.0790245 0.0040804 -0.000115729)
        Viscous  : (0.210877 0.000145376 2.81011e-05)
    Sum of moments
        Total    : (-7.69673e-07 1.58401e-05 0.00108481)
        Pressure : (-7.87123e-07 1.6154e-05 0.000927947)
        Viscous  : (1.74499e-08 -3.13894e-07 0.000156862)
    writing force and moment files.

Time = 46

smoothSolver:  Solving for Ux, Initial residual = 3.45276e-05, Final residual = 3.2746e-06, No Iterations 1
smoothSolver:  Solving for Uy, Initial residual = 0.00152863, Final residual = 8.70325e-05, No Iterations 1
smoothSolver:  Solving for Uz, Initial residual = 0.00210166, Final residual = 0.000107424, No Iterations 1
GAMG:  Solving for p, Initial residual = 0.00821121, Final residual = 0.000256586, No Iterations 2
time step continuity errors : sum local = 1.74646e-06, global = -3.50175e-07, cumulative = 7.45823e-06
smoothSolver:  Solving for omega, Initial residual = 3.05391e-06, Final residual = 7.66789e-08, No Iterations 2
smoothSolver:  Solving for k, Initial residual = 0.000279042, Final residual = 1.37823e-05, No Iterations 1
ExecutionTime = 25.35 s  ClockTime = 25 s

forces forcesFish write:
    Sum of forces
        Total    : (0.289445 0.00412584 -4.39432e-05)
        Pressure : (0.0789526 0.00398214 -7.19454e-05)
        Viscous  : (0.210492 0.00014369 2.80022e-05)
    Sum of moments
        Total    : (-9.19519e-07 7.50272e-06 0.001061)
        Pressure : (-9.35396e-07 7.83066e-06 0.000904869)
        Viscous  : (1.58767e-08 -3.27947e-07 0.00015613)
    writing force and moment files.

Time = 47

smoothSolver:  Solving for Ux, Initial residual = 3.2417e-05, Final residual = 3.09936e-06, No Iterations 1
smoothSolver:  Solving for Uy, Initial residual = 0.0014039, Final residual = 7.93213e-05, No Iterations 1
smoothSolver:  Solving for Uz, Initial residual = 0.001968, Final residual = 0.000100741, No Iterations 1
GAMG:  Solving for p, Initial residual = 0.00766623, Final residual = 0.000243512, No Iterations 2
time step continuity errors : sum local = 1.65581e-06, global = -3.47715e-07, cumulative = 7.11051e-06
smoothSolver:  Solving for omega, Initial residual = 2.54317e-06, Final residual = 6.87528e-08, No Iterations 2
smoothSolver:  Solving for k, Initial residual = 0.000230087, Final residual = 1.22031e-05, No Iterations 1
ExecutionTime = 25.9 s  ClockTime = 26 s

forces forcesFish write:
    Sum of forces
        Total    : (0.288997 0.00406791 -2.81421e-05)
        Pressure : (0.0788739 0.00392597 -5.59877e-05)
        Viscous  : (0.210123 0.000141937 2.78455e-05)
    Sum of moments
        Total    : (-8.53018e-07 5.7015e-06 0.00104726)
        Pressure : (-8.67049e-07 6.03642e-06 0.000891888)
        Viscous  : (1.40308e-08 -3.34917e-07 0.000155371)
    writing force and moment files.

Time = 48

smoothSolver:  Solving for Ux, Initial residual = 3.13999e-05, Final residual = 2.97514e-06, No Iterations 1
smoothSolver:  Solving for Uy, Initial residual = 0.00128853, Final residual = 7.21756e-05, No Iterations 1
smoothSolver:  Solving for Uz, Initial residual = 0.00184465, Final residual = 9.45373e-05, No Iterations 1
GAMG:  Solving for p, Initial residual = 0.00717696, Final residual = 0.000234186, No Iterations 2
time step continuity errors : sum local = 1.59127e-06, global = -3.08055e-07, cumulative = 6.80246e-06
smoothSolver:  Solving for omega, Initial residual = 2.13392e-06, Final residual = 6.14807e-08, No Iterations 2
smoothSolver:  Solving for k, Initial residual = 0.000189595, Final residual = 1.08439e-05, No Iterations 1
ExecutionTime = 26.48 s  ClockTime = 26 s

forces forcesFish write:
    Sum of forces
        Total    : (0.288562 0.00404404 -3.78593e-05)
        Pressure : (0.0787928 0.00390388 -6.55175e-05)
        Viscous  : (0.209769 0.000140155 2.76582e-05)
    Sum of moments
        Total    : (-6.45025e-07 9.47689e-06 0.00104127)
        Pressure : (-6.56858e-07 9.81479e-06 0.000886682)
        Viscous  : (1.1833e-08 -3.37897e-07 0.000154589)
    writing force and moment files.

Time = 49

smoothSolver:  Solving for Ux, Initial residual = 3.04537e-05, Final residual = 2.86554e-06, No Iterations 1
smoothSolver:  Solving for Uy, Initial residual = 0.00119587, Final residual = 6.63307e-05, No Iterations 1
smoothSolver:  Solving for Uz, Initial residual = 0.0017202, Final residual = 8.80524e-05, No Iterations 1
GAMG:  Solving for p, Initial residual = 0.00671725, Final residual = 0.000221478, No Iterations 2
time step continuity errors : sum local = 1.50397e-06, global = -2.57986e-07, cumulative = 6.54447e-06
smoothSolver:  Solving for omega, Initial residual = 1.80582e-06, Final residual = 5.49674e-08, No Iterations 2
smoothSolver:  Solving for k, Initial residual = 0.000156333, Final residual = 9.6719e-06, No Iterations 1
ExecutionTime = 27.14 s  ClockTime = 27 s

forces forcesFish write:
    Sum of forces
        Total    : (0.288145 0.00404445 -6.68255e-05)
        Pressure : (0.0787133 0.00390608 -9.42969e-05)
        Viscous  : (0.209431 0.000138366 2.74714e-05)
    Sum of moments
        Total    : (-3.66604e-07 1.71711e-05 0.00104051)
        Pressure : (-3.76018e-07 1.75133e-05 0.000886721)
        Viscous  : (9.41404e-09 -3.42173e-07 0.000153789)
    writing force and moment files.

Time = 50

smoothSolver:  Solving for Ux, Initial residual = 2.92109e-05, Final residual = 2.75403e-06, No Iterations 1
smoothSolver:  Solving for Uy, Initial residual = 0.00112229, Final residual = 6.16565e-05, No Iterations 1
smoothSolver:  Solving for Uz, Initial residual = 0.00160133, Final residual = 8.17368e-05, No Iterations 1
GAMG:  Solving for p, Initial residual = 0.00626722, Final residual = 0.000210954, No Iterations 2
time step continuity errors : sum local = 1.4314e-06, global = -2.17825e-07, cumulative = 6.32665e-06
smoothSolver:  Solving for omega, Initial residual = 1.54168e-06, Final residual = 4.91617e-08, No Iterations 2
smoothSolver:  Solving for k, Initial residual = 0.00012918, Final residual = 8.65855e-06, No Iterations 1
ExecutionTime = 27.73 s  ClockTime = 28 s

forces forcesFish write:
    Sum of forces
        Total    : (0.287747 0.00405983 -0.000107036)
        Pressure : (0.0786381 0.00392326 -0.000134351)
        Viscous  : (0.209109 0.000136565 2.73148e-05)
    Sum of moments
        Total    : (-7.67231e-08 2.69091e-05 0.00104273)
        Pressure : (-8.36211e-08 2.72616e-05 0.000889758)
        Viscous  : (6.89803e-09 -3.52451e-07 0.00015297)
    writing force and moment files.

Time = 51

smoothSolver:  Solving for Ux, Initial residual = 2.75995e-05, Final residual = 2.63427e-06, No Iterations 1
smoothSolver:  Solving for Uy, Initial residual = 0.00105366, Final residual = 5.78974e-05, No Iterations 1
smoothSolver:  Solving for Uz, Initial residual = 0.00149066, Final residual = 7.57845e-05, No Iterations 1
GAMG:  Solving for p, Initial residual = 0.00585817, Final residual = 0.000196545, No Iterations 2
time step continuity errors : sum local = 1.33232e-06, global = -1.82054e-07, cumulative = 6.14459e-06
smoothSolver:  Solving for omega, Initial residual = 1.32806e-06, Final residual = 4.40066e-08, No Iterations 2
smoothSolver:  Solving for k, Initial residual = 0.000107128, Final residual = 7.77924e-06, No Iterations 1
ExecutionTime = 28.27 s  ClockTime = 28 s

forces forcesFish write:
    Sum of forces
        Total    : (0.287369 0.00408152 -0.000150148)
        Pressure : (0.0785679 0.00394677 -0.00017734)
        Viscous  : (0.208801 0.000134744 2.71923e-05)
    Sum of moments
        Total    : (1.74967e-07 3.68494e-05 0.00104594)
        Pressure : (1.70566e-07 3.72167e-05 0.000893809)
        Viscous  : (4.40072e-09 -3.67347e-07 0.000152131)
    writing force and moment files.

Time = 52

smoothSolver:  Solving for Ux, Initial residual = 2.57072e-05, Final residual = 2.50633e-06, No Iterations 1
smoothSolver:  Solving for Uy, Initial residual = 0.000993133, Final residual = 5.48052e-05, No Iterations 1
smoothSolver:  Solving for Uz, Initial residual = 0.0013901, Final residual = 7.0242e-05, No Iterations 1
GAMG:  Solving for p, Initial residual = 0.00549357, Final residual = 0.000183398, No Iterations 2
time step continuity errors : sum local = 1.24178e-06, global = -1.29788e-07, cumulative = 6.0148e-06
smoothSolver:  Solving for omega, Initial residual = 1.15472e-06, Final residual = 3.94127e-08, No Iterations 2
smoothSolver:  Solving for k, Initial residual = 8.92947e-05, Final residual = 7.01283e-06, No Iterations 1
ExecutionTime = 28.74 s  ClockTime = 29 s

forces forcesFish write:
    Sum of forces
        Total    : (0.28701 0.00410182 -0.000188972)
        Pressure : (0.0785027 0.00396893 -0.000216079)
        Viscous  : (0.208507 0.000132886 2.71066e-05)
    Sum of moments
        Total    : (3.50533e-07 4.54749e-05 0.00104846)
        Pressure : (3.48546e-07 4.58618e-05 0.000897189)
        Viscous  : (1.98738e-09 -3.86867e-07 0.000151273)
    writing force and moment files.

Time = 53

smoothSolver:  Solving for Ux, Initial residual = 2.39929e-05, Final residual = 2.38279e-06, No Iterations 1
smoothSolver:  Solving for Uy, Initial residual = 0.000933966, Final residual = 5.20895e-05, No Iterations 1
smoothSolver:  Solving for Uz, Initial residual = 0.00130108, Final residual = 6.55128e-05, No Iterations 1
GAMG:  Solving for p, Initial residual = 0.00515596, Final residual = 0.000173123, No Iterations 2
time step continuity errors : sum local = 1.17092e-06, global = -6.96952e-08, cumulative = 5.94511e-06
smoothSolver:  Solving for omega, Initial residual = 1.0127e-06, Final residual = 3.53353e-08, No Iterations 2
smoothSolver:  Solving for k, Initial residual = 7.49119e-05, Final residual = 6.34148e-06, No Iterations 1
ExecutionTime = 29.2 s  ClockTime = 29 s

forces forcesFish write:
    Sum of forces
        Total    : (0.286671 0.0041158 -0.000218888)
        Pressure : (0.0784431 0.00398484 -0.000245943)
        Viscous  : (0.208228 0.000130964 2.70553e-05)
    Sum of moments
        Total    : (4.34966e-07 5.1904e-05 0.00104929)
        Pressure : (4.35192e-07 5.23145e-05 0.000898891)
        Viscous  : (-2.2591e-10 -4.10572e-07 0.000150395)
    writing force and moment files.

Time = 54

smoothSolver:  Solving for Ux, Initial residual = 2.26131e-05, Final residual = 4.96137e-07, No Iterations 2
smoothSolver:  Solving for Uy, Initial residual = 0.000871567, Final residual = 4.96197e-05, No Iterations 1
smoothSolver:  Solving for Uz, Initial residual = 0.00122014, Final residual = 6.15772e-05, No Iterations 1
GAMG:  Solving for p, Initial residual = 0.00483645, Final residual = 0.000168234, No Iterations 2
time step continuity errors : sum local = 1.13688e-06, global = -2.13152e-08, cumulative = 5.92379e-06
smoothSolver:  Solving for omega, Initial residual = 8.97689e-07, Final residual = 3.18703e-08, No Iterations 2
smoothSolver:  Solving for k, Initial residual = 6.33128e-05, Final residual = 5.74801e-06, No Iterations 1
ExecutionTime = 29.7 s  ClockTime = 30 s

forces forcesFish write:
    Sum of forces
        Total    : (0.286294 0.00411669 -0.000239469)
        Pressure : (0.0783511 0.00398774 -0.000266498)
        Viscous  : (0.207943 0.000128949 2.70293e-05)
    Sum of moments
        Total    : (4.37085e-07 5.63057e-05 0.0010459)
        Pressure : (4.39209e-07 5.67438e-05 0.000896469)
        Viscous  : (-2.12437e-09 -4.3817e-07 0.000149427)
    writing force and moment files.

Time = 55

smoothSolver:  Solving for Ux, Initial residual = 2.14949e-05, Final residual = 4.67426e-07, No Iterations 2
smoothSolver:  Solving for Uy, Initial residual = 0.000811669, Final residual = 4.77155e-05, No Iterations 1
smoothSolver:  Solving for Uz, Initial residual = 0.00115341, Final residual = 5.92058e-05, No Iterations 1
GAMG:  Solving for p, Initial residual = 0.00453196, Final residual = 0.00016082, No Iterations 2
time step continuity errors : sum local = 1.08583e-06, global = 3.54542e-08, cumulative = 5.95925e-06
smoothSolver:  Solving for omega, Initial residual = 8.0116e-07, Final residual = 2.8785e-08, No Iterations 2
smoothSolver:  Solving for k, Initial residual = 5.39526e-05, Final residual = 5.22197e-06, No Iterations 1
ExecutionTime = 30.16 s  ClockTime = 30 s

forces forcesFish write:
    Sum of forces
        Total    : (0.285916 0.00410904 -0.000251053)
        Pressure : (0.0782434 0.00398222 -0.000278072)
        Viscous  : (0.207672 0.000126823 2.70186e-05)
    Sum of moments
        Total    : (3.80067e-07 5.88958e-05 0.00104008)
        Pressure : (3.83843e-07 5.93613e-05 0.000891649)
        Viscous  : (-3.77538e-09 -4.65531e-07 0.000148434)
    writing force and moment files.

Time = 56

smoothSolver:  Solving for Ux, Initial residual = 2.08559e-05, Final residual = 2.05725e-06, No Iterations 1
smoothSolver:  Solving for Uy, Initial residual = 0.000756888, Final residual = 4.63373e-05, No Iterations 1
smoothSolver:  Solving for Uz, Initial residual = 0.00109361, Final residual = 5.8031e-05, No Iterations 1
GAMG:  Solving for p, Initial residual = 0.00423608, Final residual = 0.000150197, No Iterations 2
time step continuity errors : sum local = 1.01329e-06, global = 8.72646e-08, cumulative = 6.04651e-06
smoothSolver:  Solving for omega, Initial residual = 7.1692e-07, Final residual = 2.59081e-08, No Iterations 2
smoothSolver:  Solving for k, Initial residual = 4.63892e-05, Final residual = 9.58261e-07, No Iterations 2
ExecutionTime = 30.68 s  ClockTime = 31 s

forces forcesFish write:
    Sum of forces
        Total    : (0.285576 0.00410176 -0.000253921)
        Pressure : (0.0781708 0.00397719 -0.000280931)
        Viscous  : (0.207405 0.000124571 2.701e-05)
    Sum of moments
        Total    : (2.88992e-07 5.9727e-05 0.00103542)
        Pressure : (2.94147e-07 6.02151e-05 0.000887956)
        Viscous  : (-5.15452e-09 -4.88125e-07 0.000147462)
    writing force and moment files.

Time = 57

smoothSolver:  Solving for Ux, Initial residual = 2.0535e-05, Final residual = 1.99164e-06, No Iterations 1
smoothSolver:  Solving for Uy, Initial residual = 0.000710715, Final residual = 4.48801e-05, No Iterations 1
smoothSolver:  Solving for Uz, Initial residual = 0.00103253, Final residual = 5.65704e-05, No Iterations 1
GAMG:  Solving for p, Initial residual = 0.00396835, Final residual = 0.000135646, No Iterations 2
time step continuity errors : sum local = 9.14885e-07, global = 1.30419e-07, cumulative = 6.17693e-06
smoothSolver:  Solving for omega, Initial residual = 6.60048e-07, Final residual = 2.37123e-08, No Iterations 2
smoothSolver:  Solving for k, Initial residual = 4.00024e-05, Final residual = 8.75841e-07, No Iterations 2
ExecutionTime = 31.16 s  ClockTime = 31 s

forces forcesFish write:
    Sum of forces
        Total    : (0.285282 0.00409632 -0.000251236)
        Pressure : (0.0781276 0.00397405 -0.00027823)
        Viscous  : (0.207154 0.000122267 2.69938e-05)
    Sum of moments
        Total    : (1.86089e-07 5.96101e-05 0.0010321)
        Pressure : (1.92163e-07 6.01163e-05 0.00088562)
        Viscous  : (-6.07357e-09 -5.0619e-07 0.000146483)
    writing force and moment files.

Time = 58

smoothSolver:  Solving for Ux, Initial residual = 2.00872e-05, Final residual = 1.92184e-06, No Iterations 1
smoothSolver:  Solving for Uy, Initial residual = 0.000671118, Final residual = 4.32308e-05, No Iterations 1
smoothSolver:  Solving for Uz, Initial residual = 0.000970584, Final residual = 5.46442e-05, No Iterations 1
GAMG:  Solving for p, Initial residual = 0.00372121, Final residual = 0.000117516, No Iterations 2
time step continuity errors : sum local = 7.92815e-07, global = 1.65605e-07, cumulative = 6.34254e-06
smoothSolver:  Solving for omega, Initial residual = 6.0564e-07, Final residual = 2.16808e-08, No Iterations 2
smoothSolver:  Solving for k, Initial residual = 3.47737e-05, Final residual = 7.89797e-07, No Iterations 2
ExecutionTime = 31.63 s  ClockTime = 32 s

forces forcesFish write:
    Sum of forces
        Total    : (0.285025 0.00409389 -0.000246682)
        Pressure : (0.0781061 0.00397398 -0.000273641)
        Viscous  : (0.206918 0.000119916 2.69589e-05)
    Sum of moments
        Total    : (9.26319e-08 5.94343e-05 0.00103022)
        Pressure : (9.93496e-08 5.99521e-05 0.000884725)
        Viscous  : (-6.71771e-09 -5.17868e-07 0.000145495)
    writing force and moment files.

Time = 59

smoothSolver:  Solving for Ux, Initial residual = 1.93147e-05, Final residual = 1.8429e-06, No Iterations 1
smoothSolver:  Solving for Uy, Initial residual = 0.000633176, Final residual = 4.1389e-05, No Iterations 1
smoothSolver:  Solving for Uz, Initial residual = 0.000912106, Final residual = 5.23833e-05, No Iterations 1
GAMG:  Solving for p, Initial residual = 0.00348886, Final residual = 0.000108595, No Iterations 2
time step continuity errors : sum local = 7.33191e-07, global = 1.69911e-07, cumulative = 6.51245e-06
smoothSolver:  Solving for omega, Initial residual = 5.55641e-07, Final residual = 1.98345e-08, No Iterations 2
smoothSolver:  Solving for k, Initial residual = 3.04508e-05, Final residual = 7.09267e-07, No Iterations 2
ExecutionTime = 32.13 s  ClockTime = 32 s

forces forcesFish write:
    Sum of forces
        Total    : (0.284796 0.00409542 -0.000243774)
        Pressure : (0.0780985 0.00397786 -0.000270678)
        Viscous  : (0.206698 0.000117553 2.69041e-05)
    Sum of moments
        Total    : (2.43925e-08 5.99971e-05 0.00102979)
        Pressure : (3.1474e-08 6.05207e-05 0.000885281)
        Viscous  : (-7.08151e-09 -5.23588e-07 0.000144509)
    writing force and moment files.

Time = 60

smoothSolver:  Solving for Ux, Initial residual = 1.78774e-05, Final residual = 1.74552e-06, No Iterations 1
smoothSolver:  Solving for Uy, Initial residual = 0.000598703, Final residual = 3.95245e-05, No Iterations 1
smoothSolver:  Solving for Uz, Initial residual = 0.000857798, Final residual = 4.98912e-05, No Iterations 1
GAMG:  Solving for p, Initial residual = 0.00327109, Final residual = 0.000104829, No Iterations 2
time step continuity errors : sum local = 7.087e-07, global = 1.41592e-07, cumulative = 6.65404e-06
smoothSolver:  Solving for omega, Initial residual = 5.1012e-07, Final residual = 1.81669e-08, No Iterations 2
smoothSolver:  Solving for k, Initial residual = 2.68334e-05, Final residual = 6.35901e-07, No Iterations 2
ExecutionTime = 32.61 s  ClockTime = 33 s

forces forcesFish write:
    Sum of forces
        Total    : (0.284588 0.0041014 -0.000244889)
        Pressure : (0.078097 0.00398619 -0.000271731)
        Viscous  : (0.206491 0.000115212 2.68414e-05)
    Sum of moments
        Total    : (-1.29523e-08 6.17391e-05 0.00103078)
        Pressure : (-5.64417e-09 6.22673e-05 0.000887241)
        Viscous  : (-7.30811e-09 -5.28137e-07 0.000143537)
    writing force and moment files.

Time = 61

smoothSolver:  Solving for Ux, Initial residual = 1.57267e-05, Final residual = 3.56089e-07, No Iterations 2
smoothSolver:  Solving for Uy, Initial residual = 0.000567314, Final residual = 3.77375e-05, No Iterations 1
smoothSolver:  Solving for Uz, Initial residual = 0.000805315, Final residual = 4.72266e-05, No Iterations 1
GAMG:  Solving for p, Initial residual = 0.00308013, Final residual = 9.89315e-05, No Iterations 2
time step continuity errors : sum local = 6.70037e-07, global = 1.16199e-07, cumulative = 6.77024e-06
smoothSolver:  Solving for omega, Initial residual = 4.71735e-07, Final residual = 1.67685e-08, No Iterations 2
smoothSolver:  Solving for k, Initial residual = 2.37661e-05, Final residual = 5.69173e-07, No Iterations 2
ExecutionTime = 33.11 s  ClockTime = 33 s

forces forcesFish write:
    Sum of forces
        Total    : (0.284345 0.00410991 -0.00025231)
        Pressure : (0.0780592 0.00399701 -0.00027908)
        Viscous  : (0.206286 0.000112902 2.677e-05)
    Sum of moments
        Total    : (-2.03887e-08 6.50785e-05 0.00103194)
        Pressure : (-1.29565e-08 6.56106e-05 0.00088941)
        Viscous  : (-7.43217e-09 -5.32102e-07 0.000142533)
    writing force and moment files.

Time = 62

smoothSolver:  Solving for Ux, Initial residual = 1.36399e-05, Final residual = 3.35172e-07, No Iterations 2
smoothSolver:  Solving for Uy, Initial residual = 0.00053536, Final residual = 3.63004e-05, No Iterations 1
smoothSolver:  Solving for Uz, Initial residual = 0.000758724, Final residual = 4.51341e-05, No Iterations 1
GAMG:  Solving for p, Initial residual = 0.00289411, Final residual = 9.15204e-05, No Iterations 2
time step continuity errors : sum local = 6.20749e-07, global = 1.0793e-07, cumulative = 6.87817e-06
smoothSolver:  Solving for omega, Initial residual = 4.36305e-07, Final residual = 1.54958e-08, No Iterations 2
smoothSolver:  Solving for k, Initial residual = 2.11442e-05, Final residual = 5.08941e-07, No Iterations 2
ExecutionTime = 33.63 s  ClockTime = 34 s

forces forcesFish write:
    Sum of forces
        Total    : (0.28409 0.00412166 -0.000263652)
        Pressure : (0.077997 0.00401105 -0.000290335)
        Viscous  : (0.206093 0.000110617 2.66831e-05)
    Sum of moments
        Total    : (-7.87226e-09 6.92633e-05 0.00103382)
        Pressure : (-4.33709e-10 6.97944e-05 0.000892282)
        Viscous  : (-7.43855e-09 -5.31079e-07 0.000141541)
    writing force and moment files.

Time = 63

smoothSolver:  Solving for Ux, Initial residual = 1.2203e-05, Final residual = 3.16831e-07, No Iterations 2
smoothSolver:  Solving for Uy, Initial residual = 0.000500008, Final residual = 3.49138e-05, No Iterations 1
smoothSolver:  Solving for Uz, Initial residual = 0.000713747, Final residual = 4.32331e-05, No Iterations 1
GAMG:  Solving for p, Initial residual = 0.0027169, Final residual = 8.99514e-05, No Iterations 2
time step continuity errors : sum local = 6.10626e-07, global = 8.9789e-08, cumulative = 6.96796e-06
smoothSolver:  Solving for omega, Initial residual = 4.04339e-07, Final residual = 1.43351e-08, No Iterations 2
smoothSolver:  Solving for k, Initial residual = 1.88755e-05, Final residual = 4.54682e-07, No Iterations 2
ExecutionTime = 34.12 s  ClockTime = 34 s

forces forcesFish write:
    Sum of forces
        Total    : (0.283838 0.00413697 -0.000276968)
        Pressure : (0.0779239 0.00402858 -0.000303563)
        Viscous  : (0.205914 0.000108385 2.65949e-05)
    Sum of moments
        Total    : (1.83442e-08 7.37315e-05 0.00103674)
        Pressure : (2.56461e-08 7.42608e-05 0.000896175)
        Viscous  : (-7.30188e-09 -5.29376e-07 0.000140569)
    writing force and moment files.

Time = 64

smoothSolver:  Solving for Ux, Initial residual = 1.13818e-05, Final residual = 3.00182e-07, No Iterations 2
smoothSolver:  Solving for Uy, Initial residual = 0.000465604, Final residual = 3.35677e-05, No Iterations 1
smoothSolver:  Solving for Uz, Initial residual = 0.000670583, Final residual = 4.13902e-05, No Iterations 1
GAMG:  Solving for p, Initial residual = 0.00255133, Final residual = 8.79427e-05, No Iterations 2
[...]
        Total    : (3.26682e-07 9.21503e-05 0.00126175)
        Pressure : (3.18832e-07 9.2498e-05 0.00113522)
        Viscous  : (7.85003e-09 -3.47653e-07 0.000126537)
    writing force and moment files.

Time = 121

smoothSolver:  Solving for Ux, Initial residual = 1.0545e-06, Final residual = 4.78095e-08, No Iterations 1
smoothSolver:  Solving for Uy, Initial residual = 2.41298e-05, Final residual = 1.36802e-06, No Iterations 1
smoothSolver:  Solving for Uz, Initial residual = 2.94434e-05, Final residual = 1.64033e-06, No Iterations 1
GAMG:  Solving for p, Initial residual = 0.000105547, Final residual = 4.4406e-06, No Iterations 2
time step continuity errors : sum local = 3.03341e-08, global = -6.83466e-09, cumulative = 6.54622e-06
smoothSolver:  Solving for omega, Initial residual = 9.82511e-09, Final residual = 9.82511e-09, No Iterations 0
smoothSolver:  Solving for k, Initial residual = 6.10052e-08, Final residual = 4.93422e-09, No Iterations 1
ExecutionTime = 64.89 s  ClockTime = 65 s

forces forcesFish write:
    Sum of forces
        Total    : (0.281133 0.00486096 -0.000333539)
        Pressure : (0.0772407 0.00478129 -0.000358486)
        Viscous  : (0.203893 7.96738e-05 2.49472e-05)
    Sum of moments
        Total    : (3.25928e-07 9.20149e-05 0.00126206)
        Pressure : (3.1793e-07 9.23609e-05 0.00113553)
        Viscous  : (7.99878e-09 -3.46039e-07 0.000126533)
    writing force and moment files.

Time = 122

smoothSolver:  Solving for Ux, Initial residual = 1.02598e-06, Final residual = 4.52394e-08, No Iterations 1
smoothSolver:  Solving for Uy, Initial residual = 2.25309e-05, Final residual = 1.25295e-06, No Iterations 1
smoothSolver:  Solving for Uz, Initial residual = 2.77109e-05, Final residual = 1.51516e-06, No Iterations 1
GAMG:  Solving for p, Initial residual = 9.92983e-05, Final residual = 4.00428e-06, No Iterations 2
time step continuity errors : sum local = 2.73538e-08, global = -3.93618e-09, cumulative = 6.54228e-06
smoothSolver:  Solving for omega, Initial residual = 1.07989e-08, Final residual = 1.65046e-09, No Iterations 1
smoothSolver:  Solving for k, Initial residual = 5.69383e-08, Final residual = 4.49602e-09, No Iterations 1
ExecutionTime = 65.38 s  ClockTime = 65 s

forces forcesFish write:
    Sum of forces
        Total    : (0.281131 0.00486174 -0.000333163)
        Pressure : (0.0772392 0.00478207 -0.000358106)
        Viscous  : (0.203892 7.96721e-05 2.49433e-05)
    Sum of moments
        Total    : (3.25233e-07 9.18926e-05 0.00126237)
        Pressure : (3.17095e-07 9.22372e-05 0.00113584)
        Viscous  : (8.13764e-09 -3.446e-07 0.000126529)
    writing force and moment files.

Time = 123

smoothSolver:  Solving for Ux, Initial residual = 9.84097e-07, Final residual = 4.24585e-08, No Iterations 1
smoothSolver:  Solving for Uy, Initial residual = 2.10342e-05, Final residual = 1.14738e-06, No Iterations 1
smoothSolver:  Solving for Uz, Initial residual = 2.59851e-05, Final residual = 1.39666e-06, No Iterations 1
GAMG:  Solving for p, Initial residual = 9.33844e-05, Final residual = 3.64642e-06, No Iterations 2
time step continuity errors : sum local = 2.49096e-08, global = -7.23174e-10, cumulative = 6.54156e-06
smoothSolver:  Solving for omega, Initial residual = 8.57426e-09, Final residual = 8.57426e-09, No Iterations 0
smoothSolver:  Solving for k, Initial residual = 5.35109e-08, Final residual = 4.19782e-09, No Iterations 1
ExecutionTime = 65.89 s  ClockTime = 66 s

forces forcesFish write:
    Sum of forces
        Total    : (0.281129 0.00486251 -0.00033282)
        Pressure : (0.0772378 0.00478284 -0.00035776)
        Viscous  : (0.203891 7.96703e-05 2.49399e-05)
    Sum of moments
        Total    : (3.24603e-07 9.17807e-05 0.00126266)
        Pressure : (3.16336e-07 9.2124e-05 0.00113614)
        Viscous  : (8.26656e-09 -3.43335e-07 0.000126525)
    writing force and moment files.

Time = 124

smoothSolver:  Solving for Ux, Initial residual = 9.33866e-07, Final residual = 3.95849e-08, No Iterations 1
smoothSolver:  Solving for Uy, Initial residual = 1.96438e-05, Final residual = 1.05289e-06, No Iterations 1
smoothSolver:  Solving for Uz, Initial residual = 2.43116e-05, Final residual = 1.28825e-06, No Iterations 1
GAMG:  Solving for p, Initial residual = 8.77867e-05, Final residual = 3.34824e-06, No Iterations 2
time step continuity errors : sum local = 2.28732e-08, global = 2.62032e-09, cumulative = 6.54418e-06
smoothSolver:  Solving for omega, Initial residual = 9.37681e-09, Final residual = 9.37681e-09, No Iterations 0
smoothSolver:  Solving for k, Initial residual = 5.04823e-08, Final residual = 3.92499e-09, No Iterations 1
ExecutionTime = 66.37 s  ClockTime = 66 s

forces forcesFish write:
    Sum of forces
        Total    : (0.281128 0.00486329 -0.000332504)
        Pressure : (0.0772367 0.00478362 -0.000357441)
        Viscous  : (0.203891 7.96686e-05 2.49369e-05)
    Sum of moments
        Total    : (3.24038e-07 9.16777e-05 0.00126296)
        Pressure : (3.15652e-07 9.20199e-05 0.00113643)
        Viscous  : (8.38578e-09 -3.42227e-07 0.000126521)
    writing force and moment files.

Time = 125

smoothSolver:  Solving for Ux, Initial residual = 8.79977e-07, Final residual = 3.67399e-08, No Iterations 1
smoothSolver:  Solving for Uy, Initial residual = 1.83561e-05, Final residual = 9.68608e-07, No Iterations 1
smoothSolver:  Solving for Uz, Initial residual = 2.27202e-05, Final residual = 1.19045e-06, No Iterations 1
GAMG:  Solving for p, Initial residual = 8.25977e-05, Final residual = 3.10515e-06, No Iterations 2
time step continuity errors : sum local = 2.12131e-08, global = 5.37652e-09, cumulative = 6.54956e-06
smoothSolver:  Solving for omega, Initial residual = 1.01126e-08, Final residual = 1.53259e-09, No Iterations 1
smoothSolver:  Solving for k, Initial residual = 4.70387e-08, Final residual = 3.57407e-09, No Iterations 1
ExecutionTime = 66.86 s  ClockTime = 67 s

forces forcesFish write:
    Sum of forces
        Total    : (0.281126 0.00486406 -0.000332214)
        Pressure : (0.0772357 0.00478439 -0.000357148)
        Viscous  : (0.20389 7.96674e-05 2.49344e-05)
    Sum of moments
        Total    : (3.23536e-07 9.1583e-05 0.00126325)
        Pressure : (3.15041e-07 9.19242e-05 0.00113673)
        Viscous  : (8.49548e-09 -3.41265e-07 0.000126518)
    writing force and moment files.

Time = 126

smoothSolver:  Solving for Ux, Initial residual = 8.21564e-07, Final residual = 3.39041e-08, No Iterations 1
smoothSolver:  Solving for Uy, Initial residual = 1.71534e-05, Final residual = 8.91854e-07, No Iterations 1
smoothSolver:  Solving for Uz, Initial residual = 2.12087e-05, Final residual = 1.10116e-06, No Iterations 1
GAMG:  Solving for p, Initial residual = 7.77807e-05, Final residual = 2.89227e-06, No Iterations 2
time step continuity errors : sum local = 1.97594e-08, global = 7.23342e-09, cumulative = 6.55679e-06
smoothSolver:  Solving for omega, Initial residual = 7.88642e-09, Final residual = 7.88642e-09, No Iterations 0
smoothSolver:  Solving for k, Initial residual = 4.41177e-08, Final residual = 3.3374e-09, No Iterations 1
ExecutionTime = 67.38 s  ClockTime = 67 s

forces forcesFish write:
    Sum of forces
        Total    : (0.281125 0.00486484 -0.000331947)
        Pressure : (0.0772348 0.00478517 -0.000356879)
        Viscous  : (0.20389 7.96669e-05 2.49323e-05)
    Sum of moments
        Total    : (3.23091e-07 9.14959e-05 0.00126354)
        Pressure : (3.14495e-07 9.18364e-05 0.00113702)
        Viscous  : (8.59584e-09 -3.40444e-07 0.000126515)
    writing force and moment files.

Time = 127

smoothSolver:  Solving for Ux, Initial residual = 7.56285e-07, Final residual = 3.09966e-08, No Iterations 1
smoothSolver:  Solving for Uy, Initial residual = 1.60272e-05, Final residual = 8.22312e-07, No Iterations 1
smoothSolver:  Solving for Uz, Initial residual = 1.97832e-05, Final residual = 1.02033e-06, No Iterations 1
GAMG:  Solving for p, Initial residual = 7.32082e-05, Final residual = 2.79453e-06, No Iterations 2
time step continuity errors : sum local = 1.90923e-08, global = 7.84736e-09, cumulative = 6.56464e-06
smoothSolver:  Solving for omega, Initial residual = 8.48464e-09, Final residual = 8.48464e-09, No Iterations 0
smoothSolver:  Solving for k, Initial residual = 4.15624e-08, Final residual = 3.12064e-09, No Iterations 1
ExecutionTime = 67.91 s  ClockTime = 68 s

forces forcesFish write:
    Sum of forces
        Total    : (0.281124 0.00486562 -0.000331704)
        Pressure : (0.0772342 0.00478595 -0.000356634)
        Viscous  : (0.203889 7.96671e-05 2.49305e-05)
    Sum of moments
        Total    : (3.22698e-07 9.14167e-05 0.00126383)
        Pressure : (3.14011e-07 9.17564e-05 0.00113732)
        Viscous  : (8.68732e-09 -3.39744e-07 0.000126513)
    writing force and moment files.

Time = 128

smoothSolver:  Solving for Ux, Initial residual = 6.80663e-07, Final residual = 2.79221e-08, No Iterations 1
smoothSolver:  Solving for Uy, Initial residual = 1.49658e-05, Final residual = 7.58937e-07, No Iterations 1
smoothSolver:  Solving for Uz, Initial residual = 1.84349e-05, Final residual = 9.46443e-07, No Iterations 1
GAMG:  Solving for p, Initial residual = 6.88422e-05, Final residual = 2.81455e-06, No Iterations 2
time step continuity errors : sum local = 1.92299e-08, global = 7.22244e-09, cumulative = 6.57186e-06
smoothSolver:  Solving for omega, Initial residual = 9.03035e-09, Final residual = 9.03035e-09, No Iterations 0
smoothSolver:  Solving for k, Initial residual = 3.90672e-08, Final residual = 2.91399e-09, No Iterations 1
ExecutionTime = 68.46 s  ClockTime = 68 s

forces forcesFish write:
    Sum of forces
        Total    : (0.281123 0.00486639 -0.000331486)
        Pressure : (0.0772336 0.00478672 -0.000356415)
        Viscous  : (0.203889 7.96682e-05 2.4929e-05)
    Sum of moments
        Total    : (3.22352e-07 9.13458e-05 0.00126412)
        Pressure : (3.13582e-07 9.1685e-05 0.00113761)
        Viscous  : (8.77029e-09 -3.39155e-07 0.000126511)
    writing force and moment files.

Time = 129

smoothSolver:  Solving for Ux, Initial residual = 5.92719e-07, Final residual = 2.45977e-08, No Iterations 1
smoothSolver:  Solving for Uy, Initial residual = 1.39504e-05, Final residual = 7.00796e-07, No Iterations 1
smoothSolver:  Solving for Uz, Initial residual = 1.71434e-05, Final residual = 8.77229e-07, No Iterations 1
GAMG:  Solving for p, Initial residual = 6.46643e-05, Final residual = 2.7291e-06, No Iterations 2
time step continuity errors : sum local = 1.8647e-08, global = 5.92775e-09, cumulative = 6.57779e-06
smoothSolver:  Solving for omega, Initial residual = 9.52586e-09, Final residual = 9.52586e-09, No Iterations 0
smoothSolver:  Solving for k, Initial residual = 3.65991e-08, Final residual = 2.71786e-09, No Iterations 1
ExecutionTime = 68.97 s  ClockTime = 69 s

forces forcesFish write:
    Sum of forces
        Total    : (0.281122 0.00486715 -0.000331298)
        Pressure : (0.0772333 0.00478748 -0.000356226)
        Viscous  : (0.203889 7.96703e-05 2.49277e-05)
    Sum of moments
        Total    : (3.22042e-07 9.1284e-05 0.0012644)
        Pressure : (3.13197e-07 9.16227e-05 0.00113789)
        Viscous  : (8.84515e-09 -3.38664e-07 0.00012651)
    writing force and moment files.

Time = 130

smoothSolver:  Solving for Ux, Initial residual = 4.96519e-07, Final residual = 2.11138e-08, No Iterations 1
smoothSolver:  Solving for Uy, Initial residual = 1.29429e-05, Final residual = 6.44369e-07, No Iterations 1
smoothSolver:  Solving for Uz, Initial residual = 1.58673e-05, Final residual = 8.09574e-07, No Iterations 1
GAMG:  Solving for p, Initial residual = 6.05941e-05, Final residual = 2.55106e-06, No Iterations 2
time step continuity errors : sum local = 1.74314e-08, global = 4.75572e-09, cumulative = 6.58254e-06
smoothSolver:  Solving for omega, Initial residual = 9.97312e-09, Final residual = 9.97312e-09, No Iterations 0
smoothSolver:  Solving for k, Initial residual = 3.41574e-08, Final residual = 2.53207e-09, No Iterations 1
ExecutionTime = 69.42 s  ClockTime = 69 s

forces forcesFish write:
    Sum of forces
        Total    : (0.281121 0.00486787 -0.000331141)
        Pressure : (0.077233 0.0047882 -0.000356068)
        Viscous  : (0.203888 7.96733e-05 2.49267e-05)
    Sum of moments
        Total    : (3.21758e-07 9.12312e-05 0.00126468)
        Pressure : (3.12846e-07 9.15695e-05 0.00113817)
        Viscous  : (8.91233e-09 -3.3826e-07 0.000126509)
    writing force and moment files.

Time = 131

smoothSolver:  Solving for Ux, Initial residual = 4.03723e-07, Final residual = 1.77756e-08, No Iterations 1
smoothSolver:  Solving for Uy, Initial residual = 1.19214e-05, Final residual = 5.8756e-07, No Iterations 1
smoothSolver:  Solving for Uz, Initial residual = 1.45909e-05, Final residual = 7.40661e-07, No Iterations 1
GAMG:  Solving for p, Initial residual = 5.66697e-05, Final residual = 2.34156e-06, No Iterations 2
time step continuity errors : sum local = 1.60007e-08, global = 3.85509e-09, cumulative = 6.5864e-06
smoothSolver:  Solving for omega, Initial residual = 1.03772e-08, Final residual = 1.53182e-09, No Iterations 1
smoothSolver:  Solving for k, Initial residual = 3.11567e-08, Final residual = 2.26487e-09, No Iterations 1
ExecutionTime = 69.91 s  ClockTime = 70 s

forces forcesFish write:
    Sum of forces
        Total    : (0.281121 0.00486856 -0.00033101)
        Pressure : (0.0772329 0.00478888 -0.000355936)
        Viscous  : (0.203888 7.96771e-05 2.49259e-05)
    Sum of moments
        Total    : (3.21491e-07 9.11863e-05 0.00126493)
        Pressure : (3.12518e-07 9.15242e-05 0.00113843)
        Viscous  : (8.97226e-09 -3.37932e-07 0.000126509)
    writing force and moment files.

Time = 132

smoothSolver:  Solving for Ux, Initial residual = 3.26515e-07, Final residual = 1.4931e-08, No Iterations 1
smoothSolver:  Solving for Uy, Initial residual = 1.08949e-05, Final residual = 5.29793e-07, No Iterations 1
smoothSolver:  Solving for Uz, Initial residual = 1.33311e-05, Final residual = 6.70216e-07, No Iterations 1
GAMG:  Solving for p, Initial residual = 5.2924e-05, Final residual = 2.15243e-06, No Iterations 2
time step continuity errors : sum local = 1.4709e-08, global = 2.81668e-09, cumulative = 6.58922e-06
smoothSolver:  Solving for omega, Initial residual = 7.68699e-09, Final residual = 7.68699e-09, No Iterations 0
smoothSolver:  Solving for k, Initial residual = 2.87127e-08, Final residual = 2.10844e-09, No Iterations 1
ExecutionTime = 70.38 s  ClockTime = 70 s

forces forcesFish write:
    Sum of forces
        Total    : (0.281121 0.00486919 -0.0003309)
        Pressure : (0.0772329 0.00478951 -0.000355825)
        Viscous  : (0.203888 7.96817e-05 2.49253e-05)
    Sum of moments
        Total    : (3.21237e-07 9.1147e-05 0.00126518)
        Pressure : (3.12212e-07 9.14847e-05 0.00113867)
        Viscous  : (9.02531e-09 -3.37677e-07 0.000126509)
    writing force and moment files.

Time = 133

smoothSolver:  Solving for Ux, Initial residual = 2.71217e-07, Final residual = 1.27471e-08, No Iterations 1
smoothSolver:  Solving for Uy, Initial residual = 9.90804e-06, Final residual = 4.74075e-07, No Iterations 1
smoothSolver:  Solving for Uz, Initial residual = 1.21304e-05, Final residual = 6.02146e-07, No Iterations 1
GAMG:  Solving for p, Initial residual = 4.93606e-05, Final residual = 1.98863e-06, No Iterations 2
time step continuity errors : sum local = 1.35901e-08, global = 1.39782e-09, cumulative = 6.59061e-06
smoothSolver:  Solving for omega, Initial residual = 8.00704e-09, Final residual = 8.00704e-09, No Iterations 0
smoothSolver:  Solving for k, Initial residual = 2.65344e-08, Final residual = 1.96007e-09, No Iterations 1
ExecutionTime = 70.85 s  ClockTime = 71 s

forces forcesFish write:
    Sum of forces
        Total    : (0.281121 0.0048698 -0.000330805)
        Pressure : (0.077233 0.00479011 -0.00035573)
        Viscous  : (0.203888 7.96869e-05 2.49249e-05)
    Sum of moments
        Total    : (3.20999e-07 9.11122e-05 0.00126541)
        Pressure : (3.11927e-07 9.14497e-05 0.0011389)
        Viscous  : (9.07212e-09 -3.37477e-07 0.00012651)
    writing force and moment files.

Time = 134

smoothSolver:  Solving for Ux, Initial residual = 2.43977e-07, Final residual = 1.14858e-08, No Iterations 1
smoothSolver:  Solving for Uy, Initial residual = 9.02715e-06, Final residual = 4.23948e-07, No Iterations 1
smoothSolver:  Solving for Uz, Initial residual = 1.10301e-05, Final residual = 5.39214e-07, No Iterations 1
GAMG:  Solving for p, Initial residual = 4.59842e-05, Final residual = 1.82203e-06, No Iterations 2
time step continuity errors : sum local = 1.24519e-08, global = -3.07227e-10, cumulative = 6.59031e-06
smoothSolver:  Solving for omega, Initial residual = 8.29894e-09, Final residual = 8.29894e-09, No Iterations 0
smoothSolver:  Solving for k, Initial residual = 2.4491e-08, Final residual = 1.8152e-09, No Iterations 1
ExecutionTime = 71.29 s  ClockTime = 71 s

forces forcesFish write:
    Sum of forces
        Total    : (0.28112 0.00487038 -0.000330723)
        Pressure : (0.077233 0.00479068 -0.000355647)
        Viscous  : (0.203887 7.96927e-05 2.49245e-05)
    Sum of moments
        Total    : (3.20782e-07 9.10811e-05 0.00126563)
        Pressure : (3.11668e-07 9.14185e-05 0.00113912)
        Viscous  : (9.11319e-09 -3.37322e-07 0.000126511)
    writing force and moment files.

Time = 135

smoothSolver:  Solving for Ux, Initial residual = 2.38563e-07, Final residual = 1.09757e-08, No Iterations 1
smoothSolver:  Solving for Uy, Initial residual = 8.27064e-06, Final residual = 3.80925e-07, No Iterations 1
smoothSolver:  Solving for Uz, Initial residual = 1.00471e-05, Final residual = 4.83426e-07, No Iterations 1
GAMG:  Solving for p, Initial residual = 4.28266e-05, Final residual = 1.62942e-06, No Iterations 2
time step continuity errors : sum local = 1.11358e-08, global = -2.00265e-09, cumulative = 6.5883e-06
smoothSolver:  Solving for omega, Initial residual = 8.56657e-09, Final residual = 8.56657e-09, No Iterations 0
smoothSolver:  Solving for k, Initial residual = 2.25368e-08, Final residual = 1.67698e-09, No Iterations 1
ExecutionTime = 71.74 s  ClockTime = 72 s

forces forcesFish write:
    Sum of forces
        Total    : (0.28112 0.00487093 -0.000330652)
        Pressure : (0.0772331 0.00479123 -0.000355576)
        Viscous  : (0.203887 7.96989e-05 2.49243e-05)
    Sum of moments
        Total    : (3.20587e-07 9.10534e-05 0.00126585)
        Pressure : (3.11438e-07 9.13906e-05 0.00113934)
        Viscous  : (9.14899e-09 -3.37204e-07 0.000126512)
    writing force and moment files.

Time = 136

smoothSolver:  Solving for Ux, Initial residual = 2.34601e-07, Final residual = 1.05291e-08, No Iterations 1
smoothSolver:  Solving for Uy, Initial residual = 7.62589e-06, Final residual = 3.44398e-07, No Iterations 1
smoothSolver:  Solving for Uz, Initial residual = 9.19425e-06, Final residual = 4.35374e-07, No Iterations 1
GAMG:  Solving for p, Initial residual = 3.98894e-05, Final residual = 1.42314e-06, No Iterations 2
time step continuity errors : sum local = 9.72621e-09, global = -3.13181e-09, cumulative = 6.58517e-06
smoothSolver:  Solving for omega, Initial residual = 8.81084e-09, Final residual = 8.81084e-09, No Iterations 0
smoothSolver:  Solving for k, Initial residual = 2.06974e-08, Final residual = 1.54738e-09, No Iterations 1
ExecutionTime = 72.19 s  ClockTime = 72 s


SIMPLE solution converged in 136 iterations

forces forcesFish write:
    Sum of forces
        Total    : (0.28112 0.00487147 -0.000330592)
        Pressure : (0.0772332 0.00479177 -0.000355516)
        Viscous  : (0.203887 7.97055e-05 2.49241e-05)
    Sum of moments
        Total    : (3.20416e-07 9.10289e-05 0.00126606)
        Pressure : (3.11236e-07 9.1366e-05 0.00113955)
        Viscous  : (9.18001e-09 -3.37114e-07 0.000126513)
    writing force and moment files.

End

