/*---------------------------------------------------------------------------*\
| =========                 |                                                 |
| \\      /  F ield         | OpenFOAM: The Open Source CFD Toolbox           |
|  \\    /   O peration     | Version:  2512                                  |
|   \\  /    A nd           | Website:  www.openfoam.com                      |
|    \\/     M anipulation  |                                                 |
\*---------------------------------------------------------------------------*/
Build  : _bd2b6720-20260127 OPENFOAM=2512 version=2512
Arch   : "LSB;label=32;scalar=64"
Exec   : simpleFoam
Date   : Mar 27 2026
Time   : 16:28:37
Host   : mathias-laptop
PID    : 206159
I/O    : uncollated
Case   : /home/mat/OpenFOAM/mat-run/speed_sweep_runs/U_0p2
nProcs : 1
trapFpe: Floating point exception trapping enabled (FOAM_SIGFPE).
memory pool : not available
fileModificationChecking : Monitoring run-time modified files using timeStampMaster (fileModificationSkew 5, maxFileModificationPolls 20)
allowSystemOperations : Allowing user-supplied system call operations

// * * * * * * * * * * * * * * * * * * * * * * * * * * * * * * * * * * * * * //
Create time

Create mesh for time = 0


SIMPLE: convergence criteria
    field p	 tolerance 0.0001
    field U	 tolerance 1e-05
    field "(k|omega)"	 tolerance 1e-05

Reading field p

Reading field U

Reading/calculating face flux field phi

Selecting incompressible transport model Newtonian
Selecting turbulence model type RAS
Selecting RAS turbulence model kOmegaSST
Selecting patchDistMethod meshWave
RAS
{
    RASModel        kOmegaSST;
    turbulence      on;
    printCoeffs     on;
    alphaK1         0.85;
    alphaK2         1;
    alphaOmega1     0.5;
    alphaOmega2     0.856;
    gamma1          0.555556;
    gamma2          0.44;
    beta1           0.075;
    beta2           0.0828;
    betaStar        0.09;
    a1              0.31;
    b1              1;
    c1              10;
    F3              false;
    decayControl    false;
    kInf            0;
    omegaInf        0;
}

No MRF models present

No finite volume options present

Starting time loop

forces forcesFish:
    rho: rhoInf
    Freestream density (rhoInf) set to 1000
    Not including porosity effects

Time = 1

smoothSolver:  Solving for Ux, Initial residual = 1, Final residual = 0.0941051, No Iterations 1
smoothSolver:  Solving for Uy, Initial residual = 1, Final residual = 0.0906482, No Iterations 1
smoothSolver:  Solving for Uz, Initial residual = 1, Final residual = 0.0996137, No Iterations 1
GAMG:  Solving for p, Initial residual = 1, Final residual = 0.0595461, No Iterations 5
time step continuity errors : sum local = 4.46122e-06, global = -4.71215e-07, cumulative = -4.71215e-07
smoothSolver:  Solving for omega, Initial residual = 0.0243772, Final residual = 0.00144499, No Iterations 1
bounding omega, min: -16.4138 max: 10377.9 average: 84.8545
smoothSolver:  Solving for k, Initial residual = 1, Final residual = 0.0734404, No Iterations 1
ExecutionTime = 1.75 s  ClockTime = 2 s

forces forcesFish write:
    Sum of forces
        Total    : (0.259238 -0.00636409 -0.00074802)
        Pressure : (0.218511 -0.00635883 -0.000749018)
        Viscous  : (0.0407272 -5.2561e-06 9.98205e-07)
    Sum of moments
        Total    : (-2.73484e-06 0.000252225 0.00387383)
        Pressure : (-2.73288e-06 0.000254455 0.00379735)
        Viscous  : (-1.96105e-09 -2.23061e-06 7.64821e-05)
    writing force and moment files.

Time = 2

smoothSolver:  Solving for Ux, Initial residual = 0.032062, Final residual = 0.00226515, No Iterations 2
smoothSolver:  Solving for Uy, Initial residual = 0.356292, Final residual = 0.0342907, No Iterations 2
smoothSolver:  Solving for Uz, Initial residual = 0.335039, Final residual = 0.0332051, No Iterations 2
GAMG:  Solving for p, Initial residual = 0.132738, Final residual = 0.0111866, No Iterations 3
time step continuity errors : sum local = 7.43779e-06, global = -4.75113e-07, cumulative = -9.46328e-07
smoothSolver:  Solving for omega, Initial residual = 0.0113544, Final residual = 0.000832852, No Iterations 1
smoothSolver:  Solving for k, Initial residual = 0.459775, Final residual = 0.0402104, No Iterations 1
ExecutionTime = 2.32 s  ClockTime = 3 s

forces forcesFish write:
    Sum of forces
        Total    : (0.30974 -0.00733385 -0.000808852)
        Pressure : (0.27293 -0.00736028 -0.000813197)
        Viscous  : (0.0368095 2.64253e-05 4.34498e-06)
    Sum of moments
        Total    : (-2.31614e-06 0.00016644 0.0049705)
        Pressure : (-2.333e-06 0.000173854 0.0049047)
        Viscous  : (1.68684e-08 -7.41333e-06 6.58032e-05)
    writing force and moment files.

Time = 3

smoothSolver:  Solving for Ux, Initial residual = 0.00655767, Final residual = 0.000481483, No Iterations 2
smoothSolver:  Solving for Uy, Initial residual = 0.168649, Final residual = 0.015955, No Iterations 2
smoothSolver:  Solving for Uz, Initial residual = 0.215748, Final residual = 0.0210234, No Iterations 2
GAMG:  Solving for p, Initial residual = 0.134644, Final residual = 0.0103432, No Iterations 2
time step continuity errors : sum local = 1.28801e-05, global = -5.75332e-07, cumulative = -1.52166e-06
smoothSolver:  Solving for omega, Initial residual = 0.0068461, Final residual = 0.000583341, No Iterations 1
smoothSolver:  Solving for k, Initial residual = 0.279999, Final residual = 0.0273281, No Iterations 1
ExecutionTime = 2.84 s  ClockTime = 3 s

forces forcesFish write:
    Sum of forces
        Total    : (0.284631 -0.00618787 -0.000379596)
        Pressure : (0.250482 -0.00624448 -0.000387302)
        Viscous  : (0.0341493 5.66055e-05 7.70622e-06)
    Sum of moments
        Total    : (-4.33841e-06 6.55837e-05 0.00476728)
        Pressure : (-4.34769e-06 7.6653e-05 0.00470904)
        Viscous  : (9.27964e-09 -1.10693e-05 5.8241e-05)
    writing force and moment files.

Time = 4

smoothSolver:  Solving for Ux, Initial residual = 0.00337977, Final residual = 0.0002452, No Iterations 2
smoothSolver:  Solving for Uy, Initial residual = 0.0900576, Final residual = 0.00840446, No Iterations 2
smoothSolver:  Solving for Uz, Initial residual = 0.143543, Final residual = 0.0137912, No Iterations 2
GAMG:  Solving for p, Initial residual = 0.130954, Final residual = 0.0123409, No Iterations 2
time step continuity errors : sum local = 2.17792e-05, global = -5.67778e-07, cumulative = -2.08944e-06
smoothSolver:  Solving for omega, Initial residual = 0.00456341, Final residual = 0.00042819, No Iterations 1
smoothSolver:  Solving for k, Initial residual = 0.188994, Final residual = 0.00213192, No Iterations 2
ExecutionTime = 3.36 s  ClockTime = 4 s

forces forcesFish write:
    Sum of forces
        Total    : (0.219603 -0.00380413 0.000191307)
        Pressure : (0.187472 -0.00388394 0.000181221)
        Viscous  : (0.0321314 7.98166e-05 1.00861e-05)
    Sum of moments
        Total    : (-6.55865e-06 -1.04272e-05 0.00388602)
        Pressure : (-6.5456e-06 2.01731e-06 0.00383244)
        Viscous  : (-1.30506e-08 -1.24445e-05 5.3581e-05)
    writing force and moment files.

Time = 5

smoothSolver:  Solving for Ux, Initial residual = 0.00199988, Final residual = 0.000139513, No Iterations 2
smoothSolver:  Solving for Uy, Initial residual = 0.0483832, Final residual = 0.00442407, No Iterations 2
smoothSolver:  Solving for Uz, Initial residual = 0.0911939, Final residual = 0.00856664, No Iterations 2
GAMG:  Solving for p, Initial residual = 0.0997462, Final residual = 0.004557, No Iterations 3
time step continuity errors : sum local = 1.10921e-05, global = -3.46841e-07, cumulative = -2.43628e-06
smoothSolver:  Solving for omega, Initial residual = 0.00325899, Final residual = 0.000322642, No Iterations 1
smoothSolver:  Solving for k, Initial residual = 0.135006, Final residual = 0.00165959, No Iterations 2
ExecutionTime = 3.89 s  ClockTime = 4 s

forces forcesFish write:
    Sum of forces
        Total    : (0.134064 -0.0011848 0.000417068)
        Pressure : (0.103412 -0.00127999 0.000406492)
        Viscous  : (0.0306527 9.51837e-05 1.05765e-05)
    Sum of moments
        Total    : (-5.73839e-06 -6.61077e-05 0.00261268)
        Pressure : (-5.68953e-06 -5.43483e-05 0.00256139)
        Viscous  : (-4.8855e-08 -1.17594e-05 5.12866e-05)
    writing force and moment files.

Time = 6

smoothSolver:  Solving for Ux, Initial residual = 0.00119647, Final residual = 7.33552e-05, No Iterations 2
smoothSolver:  Solving for Uy, Initial residual = 0.0216396, Final residual = 0.00176066, No Iterations 2
smoothSolver:  Solving for Uz, Initial residual = 0.04581, Final residual = 0.0038519, No Iterations 2
GAMG:  Solving for p, Initial residual = 0.0640299, Final residual = 0.00327853, No Iterations 3
time step continuity errors : sum local = 1.05222e-05, global = -8.62934e-08, cumulative = -2.52257e-06
smoothSolver:  Solving for omega, Initial residual = 0.00243258, Final residual = 2.70956e-05, No Iterations 2
smoothSolver:  Solving for k, Initial residual = 0.100787, Final residual = 0.00132897, No Iterations 2
ExecutionTime = 4.45 s  ClockTime = 5 s

forces forcesFish write:
    Sum of forces
        Total    : (0.0585753 0.0012702 0.000474053)
        Pressure : (0.0290321 0.00117014 0.000464326)
        Viscous  : (0.0295432 0.000100061 9.72669e-06)
    Sum of moments
        Total    : (-3.62577e-06 -8.9461e-05 0.00148075)
        Pressure : (-3.53432e-06 -7.9798e-05 0.00143029)
        Viscous  : (-9.14437e-08 -9.66302e-06 5.0461e-05)
    writing force and moment files.

Time = 7

smoothSolver:  Solving for Ux, Initial residual = 0.000887488, Final residual = 4.12036e-05, No Iterations 2
smoothSolver:  Solving for Uy, Initial residual = 0.012469, Final residual = 0.000491741, No Iterations 2
smoothSolver:  Solving for Uz, Initial residual = 0.0287114, Final residual = 0.00117828, No Iterations 2
GAMG:  Solving for p, Initial residual = 0.0403129, Final residual = 0.00209036, No Iterations 3
time step continuity errors : sum local = 7.96943e-06, global = 1.69249e-07, cumulative = -2.35332e-06
smoothSolver:  Solving for omega, Initial residual = 0.00181394, Final residual = 2.17779e-05, No Iterations 2
smoothSolver:  Solving for k, Initial residual = 0.0786823, Final residual = 0.00111485, No Iterations 2
ExecutionTime = 5 s  ClockTime = 5 s

forces forcesFish write:
    Sum of forces
        Total    : (0.00613924 0.00331769 0.000371531)
        Pressure : (-0.02256 0.00322251 0.000363333)
        Viscous  : (0.0286993 9.51772e-05 8.19739e-06)
    Sum of moments
        Total    : (-7.54439e-07 -9.12965e-05 0.000715825)
        Pressure : (-6.30216e-07 -8.43175e-05 0.000665489)
        Viscous  : (-1.24223e-07 -6.97907e-06 5.03364e-05)
    writing force and moment files.

Time = 8

smoothSolver:  Solving for Ux, Initial residual = 0.000837565, Final residual = 4.14517e-05, No Iterations 2
smoothSolver:  Solving for Uy, Initial residual = 0.0178765, Final residual = 0.00131165, No Iterations 2
smoothSolver:  Solving for Uz, Initial residual = 0.0559073, Final residual = 0.00444994, No Iterations 2
GAMG:  Solving for p, Initial residual = 0.0286169, Final residual = 0.00267313, No Iterations 2
time step continuity errors : sum local = 1.11303e-05, global = 3.7233e-07, cumulative = -1.98099e-06
smoothSolver:  Solving for omega, Initial residual = 0.00139986, Final residual = 1.77978e-05, No Iterations 2
smoothSolver:  Solving for k, Initial residual = 0.0637385, Final residual = 0.00095605, No Iterations 2
ExecutionTime = 5.55 s  ClockTime = 6 s

forces forcesFish write:
    Sum of forces
        Total    : (-0.0176209 0.00447524 0.000202881)
        Pressure : (-0.045669 0.00438999 0.000196852)
        Viscous  : (0.028048 8.5253e-05 6.02837e-06)
    Sum of moments
        Total    : (1.88199e-06 -6.58347e-05 0.00033936)
        Pressure : (2.01739e-06 -6.15928e-05 0.000288665)
        Viscous  : (-1.35401e-07 -4.24193e-06 5.06951e-05)
    writing force and moment files.

Time = 9

smoothSolver:  Solving for Ux, Initial residual = 0.000835567, Final residual = 4.47323e-05, No Iterations 2
smoothSolver:  Solving for Uy, Initial residual = 0.0220066, Final residual = 0.00176465, No Iterations 2
smoothSolver:  Solving for Uz, Initial residual = 0.082099, Final residual = 0.00700094, No Iterations 2
GAMG:  Solving for p, Initial residual = 0.0293533, Final residual = 0.00195453, No Iterations 2
time step continuity errors : sum local = 8.16538e-06, global = 6.4027e-07, cumulative = -1.34072e-06
smoothSolver:  Solving for omega, Initial residual = 0.00110863, Final residual = 1.47306e-05, No Iterations 2
smoothSolver:  Solving for k, Initial residual = 0.0529966, Final residual = 0.000832467, No Iterations 2
ExecutionTime = 6.09 s  ClockTime = 6 s

forces forcesFish write:
    Sum of forces
        Total    : (-0.0208361 0.00461474 -2.39277e-05)
        Pressure : (-0.0483485 0.00454074 -2.7544e-05)
        Viscous  : (0.0275124 7.39991e-05 3.61629e-06)
    Sum of moments
        Total    : (4.32304e-06 -4.98613e-05 0.00020999)
        Pressure : (4.44448e-06 -4.78959e-05 0.000159026)
        Viscous  : (-1.21438e-07 -1.96544e-06 5.09633e-05)
    writing force and moment files.

Time = 10

smoothSolver:  Solving for Ux, Initial residual = 0.000783513, Final residual = 4.2729e-05, No Iterations 2
smoothSolver:  Solving for Uy, Initial residual = 0.0226861, Final residual = 0.00183459, No Iterations 2
smoothSolver:  Solving for Uz, Initial residual = 0.0838988, Final residual = 0.00718669, No Iterations 2
GAMG:  Solving for p, Initial residual = 0.0367104, Final residual = 0.0025649, No Iterations 2
time step continuity errors : sum local = 1.00928e-05, global = 8.96239e-07, cumulative = -4.44483e-07
smoothSolver:  Solving for omega, Initial residual = 0.000896285, Final residual = 1.23587e-05, No Iterations 2
smoothSolver:  Solving for k, Initial residual = 0.0450606, Final residual = 0.00073525, No Iterations 2
ExecutionTime = 6.62 s  ClockTime = 7 s

forces forcesFish write:
    Sum of forces
        Total    : (-0.0103898 0.00398807 -0.000235834)
        Pressure : (-0.0374278 0.00392386 -0.000237434)
        Viscous  : (0.027038 6.42167e-05 1.59962e-06)
    Sum of moments
        Total    : (5.93803e-06 -4.83577e-05 0.000238757)
        Pressure : (6.02927e-06 -4.79023e-05 0.000188073)
        Viscous  : (-9.12411e-08 -4.55423e-07 5.06846e-05)
    writing force and moment files.

Time = 11

smoothSolver:  Solving for Ux, Initial residual = 0.000679135, Final residual = 3.58591e-05, No Iterations 2
smoothSolver:  Solving for Uy, Initial residual = 0.0198824, Final residual = 0.00156273, No Iterations 2
smoothSolver:  Solving for Uz, Initial residual = 0.0696058, Final residual = 0.00579023, No Iterations 2
GAMG:  Solving for p, Initial residual = 0.0424043, Final residual = 0.00347269, No Iterations 2
time step continuity errors : sum local = 1.20627e-05, global = 1.04125e-06, cumulative = 5.96771e-07
smoothSolver:  Solving for omega, Initial residual = 0.000736588, Final residual = 1.04755e-05, No Iterations 2
smoothSolver:  Solving for k, Initial residual = 0.0389071, Final residual = 0.000655404, No Iterations 2
ExecutionTime = 7.18 s  ClockTime = 7 s

forces forcesFish write:
    Sum of forces
        Total    : (0.00744528 0.00288864 -0.000313802)
        Pressure : (-0.019151 0.00283055 -0.000314193)
        Viscous  : (0.0265963 5.80875e-05 3.91066e-07)
    Sum of moments
        Total    : (5.86119e-06 -6.40272e-05 0.000351978)
        Pressure : (5.91875e-06 -6.42215e-05 0.000301964)
        Viscous  : (-5.75639e-08 1.94233e-07 5.0014e-05)
    writing force and moment files.

Time = 12

smoothSolver:  Solving for Ux, Initial residual = 0.000563309, Final residual = 2.70195e-05, No Iterations 2
smoothSolver:  Solving for Uy, Initial residual = 0.0146785, Final residual = 0.00102071, No Iterations 2
smoothSolver:  Solving for Uz, Initial residual = 0.0488647, Final residual = 0.00365187, No Iterations 2
GAMG:  Solving for p, Initial residual = 0.0454364, Final residual = 0.00420992, No Iterations 2
time step continuity errors : sum local = 1.21247e-05, global = 1.12443e-06, cumulative = 1.72121e-06
smoothSolver:  Solving for omega, Initial residual = 0.000613525, Final residual = 8.94931e-06, No Iterations 2
smoothSolver:  Solving for k, Initial residual = 0.0340691, Final residual = 0.000589632, No Iterations 2
ExecutionTime = 7.71 s  ClockTime = 8 s

forces forcesFish write:
    Sum of forces
        Total    : (0.0263629 0.00165083 -0.00021345)
        Pressure : (0.000184091 0.00159445 -0.000213553)
        Viscous  : (0.0261788 5.63782e-05 1.02755e-07)
    Sum of moments
        Total    : (3.90453e-06 -9.35811e-05 0.00048498)
        Pressure : (3.93116e-06 -9.3625e-05 0.000435873)
        Viscous  : (-2.66211e-08 4.38855e-08 4.9107e-05)
    writing force and moment files.

Time = 13

smoothSolver:  Solving for Ux, Initial residual = 0.000461272, Final residual = 1.93411e-05, No Iterations 2
smoothSolver:  Solving for Uy, Initial residual = 0.0108236, Final residual = 0.000502568, No Iterations 2
smoothSolver:  Solving for Uz, Initial residual = 0.0324564, Final residual = 0.0016037, No Iterations 2
GAMG:  Solving for p, Initial residual = 0.0471557, Final residual = 0.00446461, No Iterations 2
time step continuity errors : sum local = 1.01993e-05, global = 1.06394e-06, cumulative = 2.78514e-06
smoothSolver:  Solving for omega, Initial residual = 0.000516853, Final residual = 7.69472e-06, No Iterations 2
smoothSolver:  Solving for k, Initial residual = 0.0301271, Final residual = 0.000533598, No Iterations 2
ExecutionTime = 8.23 s  ClockTime = 8 s

forces forcesFish write:
    Sum of forces
        Total    : (0.0418433 0.000549731 3.30086e-05)
        Pressure : (0.0160625 0.000491119 3.24203e-05)
        Viscous  : (0.0257808 5.8612e-05 5.88349e-07)
    Sum of moments
        Total    : (5.67324e-07 -0.000128364 0.000596152)
        Pressure : (5.70759e-07 -0.000127833 0.000548019)
        Viscous  : (-3.4343e-09 -5.3057e-07 4.81331e-05)
    writing force and moment files.

Time = 14

smoothSolver:  Solving for Ux, Initial residual = 0.000397542, Final residual = 1.65874e-05, No Iterations 2
smoothSolver:  Solving for Uy, Initial residual = 0.0116751, Final residual = 0.000628252, No Iterations 2
smoothSolver:  Solving for Uz, Initial residual = 0.0359814, Final residual = 0.00200542, No Iterations 2
GAMG:  Solving for p, Initial residual = 0.0482973, Final residual = 0.00399661, No Iterations 2
time step continuity errors : sum local = 7.25936e-06, global = 9.00836e-07, cumulative = 3.68598e-06
smoothSolver:  Solving for omega, Initial residual = 0.000439506, Final residual = 6.65237e-06, No Iterations 2
smoothSolver:  Solving for k, Initial residual = 0.0268948, Final residual = 0.000485894, No Iterations 2
ExecutionTime = 8.79 s  ClockTime = 9 s

forces forcesFish write:
    Sum of forces
        Total    : (0.0515474 -0.000233719 0.000347149)
        Pressure : (0.0261363 -0.00029723 0.000345535)
        Viscous  : (0.0254111 6.35107e-05 1.61447e-06)
    Sum of moments
        Total    : (-3.2121e-06 -0.000159991 0.000666974)
        Pressure : (-3.2226e-06 -0.00015861 0.00061973)
        Viscous  : (1.05062e-08 -1.38038e-06 4.72445e-05)
    writing force and moment files.

Time = 15

smoothSolver:  Solving for Ux, Initial residual = 0.000372461, Final residual = 1.6193e-05, No Iterations 2
smoothSolver:  Solving for Uy, Initial residual = 0.0129534, Final residual = 0.000836522, No Iterations 2
smoothSolver:  Solving for Uz, Initial residual = 0.0410407, Final residual = 0.00281765, No Iterations 2
GAMG:  Solving for p, Initial residual = 0.0492642, Final residual = 0.00300763, No Iterations 2
time step continuity errors : sum local = 4.68588e-06, global = 7.56142e-07, cumulative = 4.44212e-06
smoothSolver:  Solving for omega, Initial residual = 0.000376649, Final residual = 5.78034e-06, No Iterations 2
smoothSolver:  Solving for k, Initial residual = 0.0241726, Final residual = 0.000444234, No Iterations 2
ExecutionTime = 9.36 s  ClockTime = 10 s

forces forcesFish write:
    Sum of forces
        Total    : (0.055077 -0.000624869 0.000620298)
        Pressure : (0.0300034 -0.000694431 0.000617615)
        Viscous  : (0.0250736 6.95614e-05 2.68306e-06)
    Sum of moments
        Total    : (-6.32274e-06 -0.000178238 0.000696323)
        Pressure : (-6.34062e-06 -0.000176003 0.000649761)
        Viscous  : (1.78787e-08 -2.23442e-06 4.65625e-05)
    writing force and moment files.

Time = 16

smoothSolver:  Solving for Ux, Initial residual = 0.000353589, Final residual = 1.54698e-05, No Iterations 2
smoothSolver:  Solving for Uy, Initial residual = 0.0125898, Final residual = 0.000843048, No Iterations 2
smoothSolver:  Solving for Uz, Initial residual = 0.0380392, Final residual = 0.00273841, No Iterations 2
GAMG:  Solving for p, Initial residual = 0.0511468, Final residual = 0.00313942, No Iterations 2
time step continuity errors : sum local = 4.7933e-06, global = 5.17719e-07, cumulative = 4.95984e-06
smoothSolver:  Solving for omega, Initial residual = 0.000324832, Final residual = 5.04287e-06, No Iterations 2
smoothSolver:  Solving for k, Initial residual = 0.0218691, Final residual = 0.000407854, No Iterations 2
ExecutionTime = 9.89 s  ClockTime = 10 s

forces forcesFish write:
    Sum of forces
        Total    : (0.0539151 -0.000669384 0.000781096)
        Pressure : (0.0291452 -0.000745065 0.000777523)
        Viscous  : (0.0247699 7.56807e-05 3.57345e-06)
    Sum of moments
        Total    : (-8.04578e-06 -0.000177281 0.000693739)
        Pressure : (-8.06724e-06 -0.000174356 0.000647521)
        Viscous  : (2.14605e-08 -2.92508e-06 4.62182e-05)
    writing force and moment files.

Time = 17

smoothSolver:  Solving for Ux, Initial residual = 0.000324073, Final residual = 1.40347e-05, No Iterations 2
smoothSolver:  Solving for Uy, Initial residual = 0.0107012, Final residual = 0.000699358, No Iterations 2
smoothSolver:  Solving for Uz, Initial residual = 0.0317054, Final residual = 0.00224096, No Iterations 2
GAMG:  Solving for p, Initial residual = 0.0478596, Final residual = 0.00292832, No Iterations 2
time step continuity errors : sum local = 4.88275e-06, global = 1.73965e-07, cumulative = 5.13381e-06
smoothSolver:  Solving for omega, Initial residual = 0.000281698, Final residual = 4.42163e-06, No Iterations 2
smoothSolver:  Solving for k, Initial residual = 0.0198864, Final residual = 0.000375606, No Iterations 2
ExecutionTime = 10.44 s  ClockTime = 11 s

forces forcesFish write:
    Sum of forces
        Total    : (0.0497283 -0.000451359 0.000835301)
        Pressure : (0.0252265 -0.000532087 0.000831273)
        Viscous  : (0.0245017 8.07275e-05 4.02757e-06)
    Sum of moments
        Total    : (-8.24224e-06 -0.000160766 0.000673798)
        Pressure : (-8.26534e-06 -0.000157459 0.000627642)
        Viscous  : (2.30964e-08 -3.30745e-06 4.61563e-05)
    writing force and moment files.

Time = 18

smoothSolver:  Solving for Ux, Initial residual = 0.000287027, Final residual = 1.22343e-05, No Iterations 2
smoothSolver:  Solving for Uy, Initial residual = 0.00801404, Final residual = 0.000479016, No Iterations 2
smoothSolver:  Solving for Uz, Initial residual = 0.0242845, Final residual = 0.00156568, No Iterations 2
GAMG:  Solving for p, Initial residual = 0.0384543, Final residual = 0.00257609, No Iterations 2
time step continuity errors : sum local = 5.0093e-06, global = -1.32946e-07, cumulative = 5.00086e-06
smoothSolver:  Solving for omega, Initial residual = 0.000245539, Final residual = 3.89857e-06, No Iterations 2
smoothSolver:  Solving for k, Initial residual = 0.0181666, Final residual = 0.000346862, No Iterations 2
ExecutionTime = 10.98 s  ClockTime = 11 s

forces forcesFish write:
    Sum of forces
        Total    : (0.0442057 -8.1655e-05 0.000756265)
        Pressure : (0.019938 -0.000165586 0.000752106)
        Viscous  : (0.0242677 8.39309e-05 4.15922e-06)
    Sum of moments
        Total    : (-6.80757e-06 -0.000130538 0.000646606)
        Pressure : (-6.83159e-06 -0.000127117 0.000600349)
        Viscous  : (2.40233e-08 -3.42189e-06 4.62576e-05)
    writing force and moment files.

Time = 19

smoothSolver:  Solving for Ux, Initial residual = 0.000249426, Final residual = 1.0331e-05, No Iterations 2
smoothSolver:  Solving for Uy, Initial residual = 0.00542844, Final residual = 0.000255941, No Iterations 2
smoothSolver:  Solving for Uz, Initial residual = 0.0173739, Final residual = 0.000872827, No Iterations 2
GAMG:  Solving for p, Initial residual = 0.0285994, Final residual = 0.0020595, No Iterations 2
time step continuity errors : sum local = 4.69443e-06, global = -3.37454e-07, cumulative = 4.66341e-06
smoothSolver:  Solving for omega, Initial residual = 0.000215055, Final residual = 3.45544e-06, No Iterations 2
smoothSolver:  Solving for k, Initial residual = 0.016665, Final residual = 0.000321109, No Iterations 2
ExecutionTime = 11.54 s  ClockTime = 12 s

forces forcesFish write:
    Sum of forces
        Total    : (0.0388832 0.000321885 0.000568383)
        Pressure : (0.0148191 0.000236616 0.000564351)
        Viscous  : (0.0240641 8.5269e-05 4.03213e-06)
    Sum of moments
        Total    : (-4.20079e-06 -9.24228e-05 0.000619119)
        Pressure : (-4.22677e-06 -8.90924e-05 0.000572674)
        Viscous  : (2.59821e-08 -3.33043e-06 4.64449e-05)
    writing force and moment files.

Time = 20

smoothSolver:  Solving for Ux, Initial residual = 0.000211894, Final residual = 8.64649e-06, No Iterations 2
smoothSolver:  Solving for Uy, Initial residual = 0.00433344, Final residual = 0.000173258, No Iterations 2
smoothSolver:  Solving for Uz, Initial residual = 0.0149446, Final residual = 0.000637442, No Iterations 2
GAMG:  Solving for p, Initial residual = 0.0212419, Final residual = 0.00153394, No Iterations 2
time step continuity errors : sum local = 3.97275e-06, global = -5.15569e-07, cumulative = 4.14784e-06
smoothSolver:  Solving for omega, Initial residual = 0.000189215, Final residual = 3.07783e-06, No Iterations 2
smoothSolver:  Solving for k, Initial residual = 0.0153336, Final residual = 0.000297671, No Iterations 2
ExecutionTime = 12.16 s  ClockTime = 12 s

forces forcesFish write:
    Sum of forces
        Total    : (0.0347596 0.000666911 0.000325178)
        Pressure : (0.0108746 0.000581853 0.000321396)
        Viscous  : (0.023885 8.50574e-05 3.78116e-06)
    Sum of moments
        Total    : (-1.16099e-06 -5.39699e-05 0.000594741)
        Pressure : (-1.1909e-06 -5.08659e-05 0.000548092)
        Viscous  : (2.99083e-08 -3.10407e-06 4.66487e-05)
    writing force and moment files.

Time = 21

smoothSolver:  Solving for Ux, Initial residual = 0.000180961, Final residual = 7.43333e-06, No Iterations 2
smoothSolver:  Solving for Uy, Initial residual = 0.0042076, Final residual = 0.000201696, No Iterations 2
smoothSolver:  Solving for Uz, Initial residual = 0.0160055, Final residual = 0.000831775, No Iterations 2
GAMG:  Solving for p, Initial residual = 0.0166148, Final residual = 0.00109815, No Iterations 2
time step continuity errors : sum local = 3.09402e-06, global = -6.48663e-07, cumulative = 3.49917e-06
smoothSolver:  Solving for omega, Initial residual = 0.000167129, Final residual = 2.75202e-06, No Iterations 2
smoothSolver:  Solving for k, Initial residual = 0.0141578, Final residual = 0.000276454, No Iterations 2
ExecutionTime = 12.7 s  ClockTime = 13 s

forces forcesFish write:
    Sum of forces
        Total    : (0.0322484 0.000898125 9.04261e-05)
        Pressure : (0.00852468 0.000814253 8.69825e-05)
        Viscous  : (0.0237237 8.38724e-05 3.44357e-06)
    Sum of moments
        Total    : (1.53637e-06 -2.24398e-05 0.000574384)
        Pressure : (1.50041e-06 -1.96265e-05 0.000527547)
        Viscous  : (3.59651e-08 -2.81332e-06 4.6837e-05)
    writing force and moment files.

Time = 22

smoothSolver:  Solving for Ux, Initial residual = 0.000162708, Final residual = 6.77214e-06, No Iterations 2
smoothSolver:  Solving for Uy, Initial residual = 0.00421729, Final residual = 0.000228646, No Iterations 2
smoothSolver:  Solving for Uz, Initial residual = 0.0170219, Final residual = 0.00100606, No Iterations 2
GAMG:  Solving for p, Initial residual = 0.0146346, Final residual = 0.000892748, No Iterations 2
time step continuity errors : sum local = 2.61995e-06, global = -7.50895e-07, cumulative = 2.74828e-06
smoothSolver:  Solving for omega, Initial residual = 0.000148093, Final residual = 2.46801e-06, No Iterations 2
smoothSolver:  Solving for k, Initial residual = 0.0130908, Final residual = 0.000256702, No Iterations 2
ExecutionTime = 13.27 s  ClockTime = 13 s

forces forcesFish write:
    Sum of forces
        Total    : (0.0312297 0.00100036 -8.32616e-05)
        Pressure : (0.00765603 0.000917833 -8.63427e-05)
        Viscous  : (0.0235736 8.25284e-05 3.08104e-06)
    Sum of moments
        Total    : (3.33614e-06 -2.97049e-06 0.000557802)
        Pressure : (3.29266e-06 -4.62342e-07 0.000510756)
        Viscous  : (4.3485e-08 -2.50815e-06 4.7046e-05)
    writing force and moment files.

Time = 23

smoothSolver:  Solving for Ux, Initial residual = 0.000157784, Final residual = 6.42889e-06, No Iterations 2
smoothSolver:  Solving for Uy, Initial residual = 0.00403753, Final residual = 0.000221535, No Iterations 2
smoothSolver:  Solving for Uz, Initial residual = 0.0168552, Final residual = 0.00102871, No Iterations 2
GAMG:  Solving for p, Initial residual = 0.0144524, Final residual = 0.000844714, No Iterations 2
time step continuity errors : sum local = 2.49283e-06, global = -7.53026e-07, cumulative = 1.99525e-06
smoothSolver:  Solving for omega, Initial residual = 0.000131555, Final residual = 2.21753e-06, No Iterations 2
smoothSolver:  Solving for k, Initial residual = 0.0121329, Final residual = 0.000238548, No Iterations 2
ExecutionTime = 13.84 s  ClockTime = 14 s

forces forcesFish write:
    Sum of forces
        Total    : (0.0312237 0.000988499 -0.000190848)
        Pressure : (0.00779319 0.000906898 -0.00019356)
        Viscous  : (0.0234305 8.16016e-05 2.71158e-06)
    Sum of moments
        Total    : (4.14186e-06 5.54713e-06 0.000541795)
        Pressure : (4.09001e-06 7.77353e-06 0.00049451)
        Viscous  : (5.18468e-08 -2.22641e-06 4.72858e-05)
    writing force and moment files.

Time = 24

smoothSolver:  Solving for Ux, Initial residual = 0.000154203, Final residual = 6.05977e-06, No Iterations 2
smoothSolver:  Solving for Uy, Initial residual = 0.00359582, Final residual = 0.000183659, No Iterations 2
smoothSolver:  Solving for Uz, Initial residual = 0.0153421, Final residual = 0.000889191, No Iterations 2
GAMG:  Solving for p, Initial residual = 0.0145119, Final residual = 0.000837543, No Iterations 2
time step continuity errors : sum local = 2.42266e-06, global = -6.78949e-07, cumulative = 1.3163e-06
smoothSolver:  Solving for omega, Initial residual = 0.000117066, Final residual = 1.9922e-06, No Iterations 2
smoothSolver:  Solving for k, Initial residual = 0.0112574, Final residual = 0.000221588, No Iterations 2
ExecutionTime = 14.39 s  ClockTime = 15 s

forces forcesFish write:
    Sum of forces
        Total    : (0.0318292 0.000883831 -0.000222249)
        Pressure : (0.00853846 0.00080236 -0.000224607)
        Viscous  : (0.0232907 8.14714e-05 2.35744e-06)
    Sum of moments
        Total    : (3.87217e-06 3.58489e-06 0.00052431)
        Pressure : (3.81246e-06 5.58928e-06 0.000476726)
        Viscous  : (5.97076e-08 -2.00439e-06 4.75838e-05)
    writing force and moment files.

Time = 25

smoothSolver:  Solving for Ux, Initial residual = 0.000148748, Final residual = 5.62523e-06, No Iterations 2
smoothSolver:  Solving for Uy, Initial residual = 0.00296197, Final residual = 0.000129533, No Iterations 2
smoothSolver:  Solving for Uz, Initial residual = 0.0128336, Final residual = 0.000638011, No Iterations 2
GAMG:  Solving for p, Initial residual = 0.0140229, Final residual = 0.000816926, No Iterations 2
time step continuity errors : sum local = 2.27073e-06, global = -5.80718e-07, cumulative = 7.35586e-07
smoothSolver:  Solving for omega, Initial residual = 0.000104321, Final residual = 1.7893e-06, No Iterations 2
smoothSolver:  Solving for k, Initial residual = 0.0104549, Final residual = 0.000205734, No Iterations 2
ExecutionTime = 14.93 s  ClockTime = 15 s

forces forcesFish write:
    Sum of forces
        Total    : (0.0326414 0.000722383 -0.000176295)
        Pressure : (0.00948811 0.000640209 -0.000178214)
        Viscous  : (0.0231533 8.21739e-05 1.91885e-06)
    Sum of moments
        Total    : (2.68474e-06 -7.67871e-06 0.00050582)
        Pressure : (2.61762e-06 -5.86177e-06 0.000457909)
        Viscous  : (6.71154e-08 -1.81694e-06 4.79103e-05)
    writing force and moment files.

Time = 26

smoothSolver:  Solving for Ux, Initial residual = 0.000142053, Final residual = 5.17676e-06, No Iterations 2
smoothSolver:  Solving for Uy, Initial residual = 0.00242428, Final residual = 9.26449e-05, No Iterations 2
smoothSolver:  Solving for Uz, Initial residual = 0.0105305, Final residual = 0.000422905, No Iterations 2
GAMG:  Solving for p, Initial residual = 0.0131104, Final residual = 0.000727118, No Iterations 2
time step continuity errors : sum local = 1.92411e-06, global = -4.52692e-07, cumulative = 2.82894e-07
smoothSolver:  Solving for omega, Initial residual = 9.30564e-05, Final residual = 1.60633e-06, No Iterations 2
smoothSolver:  Solving for k, Initial residual = 0.00971961, Final residual = 0.000190953, No Iterations 2
ExecutionTime = 15.48 s  ClockTime = 16 s

forces forcesFish write:
    Sum of forces
        Total    : (0.033337 0.000543037 -7.36772e-05)
        Pressure : (0.0103188 0.000459216 -7.52013e-05)
        Viscous  : (0.0230182 8.38205e-05 1.52403e-06)
    Sum of moments
        Total    : (9.78587e-07 -2.48019e-05 0.000487766)
        Pressure : (9.06172e-07 -2.31079e-05 0.000439403)
        Viscous  : (7.24144e-08 -1.69397e-06 4.8363e-05)
    writing force and moment files.

Time = 27

smoothSolver:  Solving for Ux, Initial residual = 0.000135366, Final residual = 4.78516e-06, No Iterations 2
smoothSolver:  Solving for Uy, Initial residual = 0.00209252, Final residual = 8.28722e-05, No Iterations 2
smoothSolver:  Solving for Uz, Initial residual = 0.00941599, Final residual = 0.000368216, No Iterations 2
GAMG:  Solving for p, Initial residual = 0.0119018, Final residual = 0.000601456, No Iterations 2
time step continuity errors : sum local = 1.5182e-06, global = -3.18832e-07, cumulative = -3.59387e-08
smoothSolver:  Solving for omega, Initial residual = 8.30472e-05, Final residual = 1.44112e-06, No Iterations 2
smoothSolver:  Solving for k, Initial residual = 0.00903408, Final residual = 0.000176969, No Iterations 2
ExecutionTime = 16.02 s  ClockTime = 16 s

forces forcesFish write:
    Sum of forces
        Total    : (0.0337317 0.000377906 5.20824e-05)
        Pressure : (0.0108457 0.000291913 5.09459e-05)
        Viscous  : (0.022886 8.59931e-05 1.1365e-06)
    Sum of moments
        Total    : (-7.62281e-07 -4.3148e-05 0.000471697)
        Pressure : (-8.38275e-07 -4.154e-05 0.000422836)
        Viscous  : (7.59941e-08 -1.6081e-06 4.88607e-05)
    writing force and moment files.

Time = 28

smoothSolver:  Solving for Ux, Initial residual = 0.000128643, Final residual = 4.45803e-06, No Iterations 2
smoothSolver:  Solving for Uy, Initial residual = 0.00190143, Final residual = 8.33146e-05, No Iterations 2
smoothSolver:  Solving for Uz, Initial residual = 0.00903316, Final residual = 0.000398585, No Iterations 2
GAMG:  Solving for p, Initial residual = 0.0107604, Final residual = 0.000543728, No Iterations 2
time step continuity errors : sum local = 1.32464e-06, global = -1.82394e-07, cumulative = -2.18333e-07
smoothSolver:  Solving for omega, Initial residual = 7.41153e-05, Final residual = 1.29169e-06, No Iterations 2
smoothSolver:  Solving for k, Initial residual = 0.00840172, Final residual = 0.0001639, No Iterations 2
ExecutionTime = 16.58 s  ClockTime = 17 s

forces forcesFish write:
    Sum of forces
        Total    : (0.0337823 0.000248952 0.000165256)
        Pressure : (0.0110247 0.000160591 0.000164469)
        Viscous  : (0.0227576 8.83612e-05 7.86564e-07)
    Sum of moments
        Total    : (-2.11843e-06 -5.81438e-05 0.000458848)
        Pressure : (-2.19643e-06 -5.65943e-05 0.000409481)
        Viscous  : (7.79991e-08 -1.54945e-06 4.93674e-05)
    writing force and moment files.

Time = 29

smoothSolver:  Solving for Ux, Initial residual = 0.000122626, Final residual = 4.18442e-06, No Iterations 2
smoothSolver:  Solving for Uy, Initial residual = 0.00175037, Final residual = 7.90223e-05, No Iterations 2
smoothSolver:  Solving for Uz, Initial residual = 0.00863619, Final residual = 0.000400509, No Iterations 2
GAMG:  Solving for p, Initial residual = 0.00998384, Final residual = 0.000602229, No Iterations 2
time step continuity errors : sum local = 1.4398e-06, global = -3.65859e-08, cumulative = -2.54918e-07
smoothSolver:  Solving for omega, Initial residual = 6.61076e-05, Final residual = 1.15575e-06, No Iterations 2
smoothSolver:  Solving for k, Initial residual = 0.00781314, Final residual = 0.000151602, No Iterations 2
ExecutionTime = 17.13 s  ClockTime = 17 s

forces forcesFish write:
    Sum of forces
        Total    : (0.0335647 0.000156787 0.000249894)
        Pressure : (0.010931 6.62033e-05 0.000249413)
        Viscous  : (0.0226338 9.05838e-05 4.81188e-07)
    Sum of moments
        Total    : (-2.94735e-06 -6.81786e-05 0.000448412)
        Pressure : (-3.02623e-06 -6.6669e-05 0.000398566)
        Viscous  : (7.88838e-08 -1.50955e-06 4.9846e-05)
    writing force and moment files.

Time = 30

smoothSolver:  Solving for Ux, Initial residual = 0.000116417, Final residual = 3.95351e-06, No Iterations 2
smoothSolver:  Solving for Uy, Initial residual = 0.00160338, Final residual = 6.92097e-05, No Iterations 2
smoothSolver:  Solving for Uz, Initial residual = 0.0079863, Final residual = 0.000354768, No Iterations 2
GAMG:  Solving for p, Initial residual = 0.00935874, Final residual = 0.00059145, No Iterations 2
time step continuity errors : sum local = 1.40671e-06, global = 7.26255e-08, cumulative = -1.82293e-07
smoothSolver:  Solving for omega, Initial residual = 5.89295e-05, Final residual = 1.03352e-06, No Iterations 2
smoothSolver:  Solving for k, Initial residual = 0.00726368, Final residual = 0.000140013, No Iterations 2
ExecutionTime = 17.67 s  ClockTime = 18 s

forces forcesFish write:
    Sum of forces
        Total    : (0.033169 9.0628e-05 0.000306373)
        Pressure : (0.0106539 -1.80979e-06 0.000306129)
        Viscous  : (0.0225151 9.24378e-05 2.43668e-07)
    Sum of moments
        Total    : (-3.25526e-06 -7.3825e-05 0.000438955)
        Pressure : (-3.33428e-06 -7.23451e-05 0.000388683)
        Viscous  : (7.90179e-08 -1.47994e-06 5.0272e-05)
    writing force and moment files.

Time = 31

smoothSolver:  Solving for Ux, Initial residual = 0.000109941, Final residual = 3.74399e-06, No Iterations 2
smoothSolver:  Solving for Uy, Initial residual = 0.00147141, Final residual = 5.65148e-05, No Iterations 2
smoothSolver:  Solving for Uz, Initial residual = 0.00716103, Final residual = 0.000275515, No Iterations 2
GAMG:  Solving for p, Initial residual = 0.00862622, Final residual = 0.000591615, No Iterations 2
time step continuity errors : sum local = 1.41397e-06, global = 1.54882e-07, cumulative = -2.74106e-08
smoothSolver:  Solving for omega, Initial residual = 5.24869e-05, Final residual = 9.23659e-07, No Iterations 2
smoothSolver:  Solving for k, Initial residual = 0.00675276, Final residual = 0.000129139, No Iterations 2
ExecutionTime = 18.2 s  ClockTime = 18 s

forces forcesFish write:
    Sum of forces
        Total    : (0.0326851 4.78647e-05 0.000326044)
        Pressure : (0.0102833 -4.59477e-05 0.000325936)
        Viscous  : (0.0224018 9.38124e-05 1.08041e-07)
    Sum of moments
        Total    : (-3.02288e-06 -7.42751e-05 0.000430582)
        Pressure : (-3.10159e-06 -7.28125e-05 0.000379954)
        Viscous  : (7.871e-08 -1.46261e-06 5.06274e-05)
    writing force and moment files.

Time = 32

smoothSolver:  Solving for Ux, Initial residual = 0.000103484, Final residual = 3.51466e-06, No Iterations 2
smoothSolver:  Solving for Uy, Initial residual = 0.00134211, Final residual = 4.57078e-05, No Iterations 2
smoothSolver:  Solving for Uz, Initial residual = 0.00643762, Final residual = 0.000206356, No Iterations 2
GAMG:  Solving for p, Initial residual = 0.00789122, Final residual = 0.000564287, No Iterations 2
time step continuity errors : sum local = 1.36434e-06, global = 2.1263e-07, cumulative = 1.8522e-07
smoothSolver:  Solving for omega, Initial residual = 4.66888e-05, Final residual = 8.24421e-07, No Iterations 2
smoothSolver:  Solving for k, Initial residual = 0.00627203, Final residual = 0.000118833, No Iterations 2
ExecutionTime = 18.74 s  ClockTime = 19 s

forces forcesFish write:
    Sum of forces
        Total    : (0.0322 2.26577e-05 0.00030864)
        Pressure : (0.00990655 -7.20435e-05 0.000308582)
        Viscous  : (0.0222935 9.47013e-05 5.82466e-08)
    Sum of moments
        Total    : (-2.37294e-06 -6.97209e-05 0.000423058)
        Pressure : (-2.45133e-06 -6.82742e-05 0.000372151)
        Viscous  : (7.83944e-08 -1.44672e-06 5.09071e-05)
    writing force and moment files.

Time = 33

smoothSolver:  Solving for Ux, Initial residual = 9.62141e-05, Final residual = 3.26486e-06, No Iterations 2
smoothSolver:  Solving for Uy, Initial residual = 0.00121871, Final residual = 3.9124e-05, No Iterations 2
smoothSolver:  Solving for Uz, Initial residual = 0.00592118, Final residual = 0.000176159, No Iterations 2
GAMG:  Solving for p, Initial residual = 0.00720642, Final residual = 0.000504427, No Iterations 2
time step continuity errors : sum local = 1.23625e-06, global = 2.49289e-07, cumulative = 4.34508e-07
smoothSolver:  Solving for omega, Initial residual = 4.14595e-05, Final residual = 7.3454e-07, No Iterations 2
smoothSolver:  Solving for k, Initial residual = 0.00582261, Final residual = 0.000109125, No Iterations 2
ExecutionTime = 19.3 s  ClockTime = 20 s

forces forcesFish write:
    Sum of forces
        Total    : (0.0317744 6.70644e-06 0.000263544)
        Pressure : (0.00958452 -8.85005e-05 0.00026346)
        Viscous  : (0.0221899 9.5207e-05 8.38554e-08)
    Sum of moments
        Total    : (-1.51942e-06 -6.15799e-05 0.00041577)
        Pressure : (-1.59775e-06 -6.01471e-05 0.000364641)
        Viscous  : (7.83273e-08 -1.43286e-06 5.11295e-05)
    writing force and moment files.

Time = 34

smoothSolver:  Solving for Ux, Initial residual = 8.83491e-05, Final residual = 3.0135e-06, No Iterations 2
smoothSolver:  Solving for Uy, Initial residual = 0.00110106, Final residual = 3.61711e-05, No Iterations 2
smoothSolver:  Solving for Uz, Initial residual = 0.00550267, Final residual = 0.000174992, No Iterations 2
GAMG:  Solving for p, Initial residual = 0.00658601, Final residual = 0.000427724, No Iterations 2
time step continuity errors : sum local = 1.06043e-06, global = 2.45205e-07, cumulative = 6.79714e-07
smoothSolver:  Solving for omega, Initial residual = 3.67375e-05, Final residual = 6.53066e-07, No Iterations 2
smoothSolver:  Solving for k, Initial residual = 0.00539957, Final residual = 9.9931e-05, No Iterations 2
ExecutionTime = 19.83 s  ClockTime = 20 s

forces forcesFish write:
    Sum of forces
        Total    : (0.0314352 -8.17476e-06 0.000204985)
        Pressure : (0.00934491 -0.00010363 0.000204839)
        Viscous  : (0.0220903 9.54551e-05 1.45677e-07)
    Sum of moments
        Total    : (-6.8218e-07 -5.18715e-05 0.000408026)
        Pressure : (-7.60962e-07 -5.04574e-05 0.000356719)
        Viscous  : (7.87823e-08 -1.41418e-06 5.13076e-05)
    writing force and moment files.

Time = 35

smoothSolver:  Solving for Ux, Initial residual = 8.09777e-05, Final residual = 2.78099e-06, No Iterations 2
smoothSolver:  Solving for Uy, Initial residual = 0.000988172, Final residual = 3.47656e-05, No Iterations 2
smoothSolver:  Solving for Uz, Initial residual = 0.00508453, Final residual = 0.000178358, No Iterations 2
GAMG:  Solving for p, Initial residual = 0.00605794, Final residual = 0.000351473, No Iterations 2
time step continuity errors : sum local = 8.77885e-07, global = 2.43553e-07, cumulative = 9.23267e-07
smoothSolver:  Solving for omega, Initial residual = 3.24698e-05, Final residual = 5.79244e-07, No Iterations 2
smoothSolver:  Solving for k, Initial residual = 0.00500014, Final residual = 9.12076e-05, No Iterations 2
ExecutionTime = 20.38 s  ClockTime = 21 s

forces forcesFish write:
    Sum of forces
        Total    : (0.0311814 -2.82267e-05 0.000146525)
        Pressure : (0.00918713 -0.000123814 0.000146306)
        Viscous  : (0.0219942 9.55875e-05 2.18809e-07)
    Sum of moments
        Total    : (-2.2512e-08 -4.24923e-05 0.000399294)
        Pressure : (-1.02237e-07 -4.1101e-05 0.000347833)
        Viscous  : (7.97248e-08 -1.39131e-06 5.14614e-05)
    writing force and moment files.

Time = 36

smoothSolver:  Solving for Ux, Initial residual = 7.58574e-05, Final residual = 2.5843e-06, No Iterations 2
smoothSolver:  Solving for Uy, Initial residual = 0.000885718, Final residual = 3.27162e-05, No Iterations 2
smoothSolver:  Solving for Uz, Initial residual = 0.00460737, Final residual = 0.000170009, No Iterations 2
GAMG:  Solving for p, Initial residual = 0.00565213, Final residual = 0.000300365, No Iterations 2
time step continuity errors : sum local = 7.52347e-07, global = 2.29865e-07, cumulative = 1.15313e-06
smoothSolver:  Solving for omega, Initial residual = 2.86109e-05, Final residual = 5.12308e-07, No Iterations 2
smoothSolver:  Solving for k, Initial residual = 0.00462288, Final residual = 8.29402e-05, No Iterations 2
ExecutionTime = 20.89 s  ClockTime = 21 s

forces forcesFish write:
    Sum of forces
        Total    : (0.0309947 -5.72577e-05 9.74518e-05)
        Pressure : (0.00909348 -0.00015298 9.7177e-05)
        Viscous  : (0.0219012 9.57224e-05 2.74796e-07)
    Sum of moments
        Total    : (3.77294e-07 -3.47046e-05 0.000389185)
        Pressure : (2.96248e-07 -3.33428e-05 0.000337578)
        Viscous  : (8.10459e-08 -1.3618e-06 5.16071e-05)
    writing force and moment files.

Time = 37

smoothSolver:  Solving for Ux, Initial residual = 7.2185e-05, Final residual = 2.41746e-06, No Iterations 2
smoothSolver:  Solving for Uy, Initial residual = 0.000809249, Final residual = 2.97621e-05, No Iterations 2
smoothSolver:  Solving for Uz, Initial residual = 0.00415116, Final residual = 0.000149873, No Iterations 2
GAMG:  Solving for p, Initial residual = 0.00530752, Final residual = 0.000279728, No Iterations 2
time step continuity errors : sum local = 7.00019e-07, global = 2.06896e-07, cumulative = 1.36003e-06
smoothSolver:  Solving for omega, Initial residual = 2.51212e-05, Final residual = 4.51638e-07, No Iterations 2
smoothSolver:  Solving for k, Initial residual = 0.00426337, Final residual = 7.50654e-05, No Iterations 2
ExecutionTime = 21.43 s  ClockTime = 22 s

forces forcesFish write:
    Sum of forces
        Total    : (0.0308535 -9.62831e-05 6.36165e-05)
        Pressure : (0.00904257 -0.000192226 6.33248e-05)
        Viscous  : (0.0218109 9.59433e-05 2.91696e-07)
    Sum of moments
        Total    : (4.94336e-07 -2.93051e-05 0.000377639)
        Pressure : (4.11637e-07 -2.79797e-05 0.00032588)
        Viscous  : (8.26986e-08 -1.32546e-06 5.17588e-05)
    writing force and moment files.

Time = 38

smoothSolver:  Solving for Ux, Initial residual = 6.85289e-05, Final residual = 2.26176e-06, No Iterations 2
smoothSolver:  Solving for Uy, Initial residual = 0.000763962, Final residual = 2.68473e-05, No Iterations 2
smoothSolver:  Solving for Uz, Initial residual = 0.00375632, Final residual = 0.000124857, No Iterations 2
GAMG:  Solving for p, Initial residual = 0.00499324, Final residual = 0.000287487, No Iterations 2
time step continuity errors : sum local = 7.17082e-07, global = 1.8137e-07, cumulative = 1.5414e-06
smoothSolver:  Solving for omega, Initial residual = 2.19691e-05, Final residual = 3.96837e-07, No Iterations 2
smoothSolver:  Solving for k, Initial residual = 0.00392192, Final residual = 6.76087e-05, No Iterations 2
ExecutionTime = 21.98 s  ClockTime = 22 s

forces forcesFish write:
    Sum of forces
        Total    : (0.0307385 -0.000143686 4.77693e-05)
        Pressure : (0.00901539 -0.000239962 4.75028e-05)
        Viscous  : (0.0217231 9.62765e-05 2.66494e-07)
    Sum of moments
        Total    : (3.61552e-07 -2.66832e-05 0.000365038)
        Pressure : (2.77096e-07 -2.5397e-05 0.00031312)
        Viscous  : (8.44555e-08 -1.28613e-06 5.19185e-05)
    writing force and moment files.

Time = 39

smoothSolver:  Solving for Ux, Initial residual = 6.38668e-05, Final residual = 2.10224e-06, No Iterations 2
smoothSolver:  Solving for Uy, Initial residual = 0.000736917, Final residual = 2.4496e-05, No Iterations 2
smoothSolver:  Solving for Uz, Initial residual = 0.0034668, Final residual = 0.000105546, No Iterations 2
GAMG:  Solving for p, Initial residual = 0.00471554, Final residual = 0.000293115, No Iterations 2
time step continuity errors : sum local = 7.28111e-07, global = 1.54646e-07, cumulative = 1.69604e-06
smoothSolver:  Solving for omega, Initial residual = 1.91286e-05, Final residual = 3.47636e-07, No Iterations 2
smoothSolver:  Solving for k, Initial residual = 0.00359425, Final residual = 6.052e-05, No Iterations 2
ExecutionTime = 22.51 s  ClockTime = 23 s

forces forcesFish write:
    Sum of forces
        Total    : (0.0306351 -0.000196029 4.88728e-05)
        Pressure : (0.00899762 -0.000292739 4.86719e-05)
        Viscous  : (0.0216375 9.67097e-05 2.00978e-07)
    Sum of moments
        Total    : (5.94361e-08 -2.66851e-05 0.000352071)
        Pressure : (-2.67051e-08 -2.5439e-05 0.000299989)
        Viscous  : (8.61413e-08 -1.24604e-06 5.20823e-05)
    writing force and moment files.

Time = 40

smoothSolver:  Solving for Ux, Initial residual = 5.79862e-05, Final residual = 1.93307e-06, No Iterations 2
smoothSolver:  Solving for Uy, Initial residual = 0.000709494, Final residual = 2.26114e-05, No Iterations 2
smoothSolver:  Solving for Uz, Initial residual = 0.00324874, Final residual = 9.38262e-05, No Iterations 2
GAMG:  Solving for p, Initial residual = 0.00449579, Final residual = 0.000275675, No Iterations 2
time step continuity errors : sum local = 6.82492e-07, global = 1.27005e-07, cumulative = 1.82305e-06
smoothSolver:  Solving for omega, Initial residual = 1.65798e-05, Final residual = 3.03778e-07, No Iterations 2
smoothSolver:  Solving for k, Initial residual = 0.00328143, Final residual = 5.38439e-05, No Iterations 2
ExecutionTime = 23.04 s  ClockTime = 23 s

forces forcesFish write:
    Sum of forces
        Total    : (0.0305345 -0.000249107 6.26082e-05)
        Pressure : (0.00898043 -0.000346309 6.25074e-05)
        Viscous  : (0.0215541 9.72018e-05 1.00754e-07)
    Sum of moments
        Total    : (-3.09859e-07 -2.86559e-05 0.000339522)
        Pressure : (-3.97531e-07 -2.745e-05 0.000287281)
        Viscous  : (8.76716e-08 -1.20593e-06 5.22402e-05)
    writing force and moment files.

Time = 41

smoothSolver:  Solving for Ux, Initial residual = 5.17876e-05, Final residual = 1.76409e-06, No Iterations 2
smoothSolver:  Solving for Uy, Initial residual = 0.000679323, Final residual = 2.10792e-05, No Iterations 2
smoothSolver:  Solving for Uz, Initial residual = 0.00304859, Final residual = 8.57682e-05, No Iterations 2
GAMG:  Solving for p, Initial residual = 0.00431979, Final residual = 0.000243355, No Iterations 2
time step continuity errors : sum local = 6.01614e-07, global = 9.78189e-08, cumulative = 1.92087e-06
smoothSolver:  Solving for omega, Initial residual = 1.43036e-05, Final residual = 2.65038e-07, No Iterations 2
smoothSolver:  Solving for k, Initial residual = 0.00298048, Final residual = 4.75583e-05, No Iterations 2
ExecutionTime = 23.6 s  ClockTime = 24 s

forces forcesFish write:
    Sum of forces
        Total    : (0.0304329 -0.000298771 8.27939e-05)
        Pressure : (0.00895984 -0.000396481 8.28137e-05)
        Viscous  : (0.0214731 9.77102e-05 -1.98771e-08)
    Sum of moments
        Total    : (-6.50723e-07 -3.16363e-05 0.000328119)
        Pressure : (-7.39751e-07 -3.0468e-05 0.000275734)
        Viscous  : (8.90272e-08 -1.16832e-06 5.23851e-05)
    writing force and moment files.

Time = 42

smoothSolver:  Solving for Ux, Initial residual = 4.69136e-05, Final residual = 1.6257e-06, No Iterations 2
smoothSolver:  Solving for Uy, Initial residual = 0.000647195, Final residual = 1.97045e-05, No Iterations 2
smoothSolver:  Solving for Uz, Initial residual = 0.00286914, Final residual = 7.92337e-05, No Iterations 2
GAMG:  Solving for p, Initial residual = 0.00413755, Final residual = 0.000211467, No Iterations 2
time step continuity errors : sum local = 5.23281e-07, global = 6.71178e-08, cumulative = 1.98799e-06
smoothSolver:  Solving for omega, Initial residual = 1.22827e-05, Final residual = 2.31081e-07, No Iterations 2
smoothSolver:  Solving for k, Initial residual = 0.00269276, Final residual = 4.17093e-05, No Iterations 2
ExecutionTime = 24.14 s  ClockTime = 24 s

forces forcesFish write:
    Sum of forces
        Total    : (0.0303293 -0.000341808 0.000103033)
        Pressure : (0.00893499 -0.000440003 0.000103182)
        Viscous  : (0.0213943 9.81948e-05 -1.49291e-07)
    Sum of moments
        Total    : (-8.96643e-07 -3.46086e-05 0.000318365)
        Pressure : (-9.86858e-07 -3.34753e-05 0.000265854)
        Viscous  : (9.02152e-08 -1.13331e-06 5.25111e-05)
    writing force and moment files.

Time = 43

smoothSolver:  Solving for Ux, Initial residual = 4.46553e-05, Final residual = 1.53461e-06, No Iterations 2
smoothSolver:  Solving for Uy, Initial residual = 0.000615896, Final residual = 1.81907e-05, No Iterations 2
smoothSolver:  Solving for Uz, Initial residual = 0.00270617, Final residual = 7.23478e-05, No Iterations 2
GAMG:  Solving for p, Initial residual = 0.00393272, Final residual = 0.000188016, No Iterations 2
time step continuity errors : sum local = 4.66689e-07, global = 3.48294e-08, cumulative = 2.02282e-06
smoothSolver:  Solving for omega, Initial residual = 1.05008e-05, Final residual = 2.01535e-07, No Iterations 2
smoothSolver:  Solving for k, Initial residual = 0.00241721, Final residual = 3.62984e-05, No Iterations 2
ExecutionTime = 24.67 s  ClockTime = 25 s

forces forcesFish write:
    Sum of forces
        Total    : (0.0302244 -0.000377208 0.00011879)
        Pressure : (0.00890644 -0.00047583 0.000119068)
        Viscous  : (0.0213179 9.86219e-05 -2.78789e-07)
    Sum of moments
        Total    : (-1.02374e-06 -3.68408e-05 0.000310287)
        Pressure : (-1.11502e-06 -3.57406e-05 0.000257676)
        Viscous  : (9.12751e-08 -1.10011e-06 5.26118e-05)
    writing force and moment files.

Time = 44

smoothSolver:  Solving for Ux, Initial residual = 4.38632e-05, Final residual = 1.47117e-06, No Iterations 2
smoothSolver:  Solving for Uy, Initial residual = 0.000581551, Final residual = 1.64842e-05, No Iterations 2
smoothSolver:  Solving for Uz, Initial residual = 0.00254342, Final residual = 6.45557e-05, No Iterations 2
GAMG:  Solving for p, Initial residual = 0.00371935, Final residual = 0.000168511, No Iterations 2
time step continuity errors : sum local = 4.2018e-07, global = 4.32706e-09, cumulative = 2.02714e-06
smoothSolver:  Solving for omega, Initial residual = 8.94293e-06, Final residual = 1.76044e-07, No Iterations 2
smoothSolver:  Solving for k, Initial residual = 0.0021551, Final residual = 3.13546e-05, No Iterations 2
ExecutionTime = 25.25 s  ClockTime = 25 s

forces forcesFish write:
    Sum of forces
        Total    : (0.0301192 -0.000406013 0.000128325)
        Pressure : (0.00887549 -0.000504986 0.000128723)
        Viscous  : (0.0212438 9.89722e-05 -3.98111e-07)
    Sum of moments
        Total    : (-1.04265e-06 -3.80522e-05 0.000303518)
        Pressure : (-1.13491e-06 -3.69829e-05 0.000250834)
        Viscous  : (9.22634e-08 -1.0693e-06 5.26839e-05)
    writing force and moment files.

Time = 45

smoothSolver:  Solving for Ux, Initial residual = 4.29983e-05, Final residual = 1.41271e-06, No Iterations 2
smoothSolver:  Solving for Uy, Initial residual = 0.000548965, Final residual = 1.4859e-05, No Iterations 2
smoothSolver:  Solving for Uz, Initial residual = 0.0023784, Final residual = 5.69933e-05, No Iterations 2
GAMG:  Solving for p, Initial residual = 0.00350864, Final residual = 0.000153144, No Iterations 2
time step continuity errors : sum local = 3.83895e-07, global = -3.58906e-08, cumulative = 1.99125e-06
smoothSolver:  Solving for omega, Initial residual = 7.59236e-06, Final residual = 1.54178e-07, No Iterations 2
smoothSolver:  Solving for k, Initial residual = 0.00190716, Final residual = 2.68876e-05, No Iterations 2
ExecutionTime = 25.87 s  ClockTime = 26 s

forces forcesFish write:
    Sum of forces
        Total    : (0.0300155 -0.000429656 0.00013158)
        Pressure : (0.0088436 -0.000528897 0.000132084)
        Viscous  : (0.0211719 9.92418e-05 -5.04052e-07)
    Sum of moments
        Total    : (-9.79752e-07 -3.82314e-05 0.000297681)
        Pressure : (-1.07295e-06 -3.71916e-05 0.000244954)
        Viscous  : (9.31983e-08 -1.03979e-06 5.27275e-05)
    writing force and moment files.

Time = 46

smoothSolver:  Solving for Ux, Initial residual = 4.178e-05, Final residual = 1.3532e-06, No Iterations 2
smoothSolver:  Solving for Uy, Initial residual = 0.000517307, Final residual = 1.3365e-05, No Iterations 2
smoothSolver:  Solving for Uz, Initial residual = 0.00221881, Final residual = 5.07194e-05, No Iterations 2
GAMG:  Solving for p, Initial residual = 0.0033026, Final residual = 0.000146365, No Iterations 2
time step continuity errors : sum local = 3.68976e-07, global = -6.6428e-08, cumulative = 1.92482e-06
smoothSolver:  Solving for omega, Initial residual = 6.43225e-06, Final residual = 1.35477e-07, No Iterations 2
smoothSolver:  Solving for k, Initial residual = 0.00167417, Final residual = 2.28954e-05, No Iterations 2
ExecutionTime = 26.49 s  ClockTime = 27 s

forces forcesFish write:
    Sum of forces
        Total    : (0.0299141 -0.000449328 0.000129396)
        Pressure : (0.00881194 -0.000548766 0.000129991)
        Viscous  : (0.0211021 9.94377e-05 -5.95269e-07)
    Sum of moments
        Total    : (-8.67739e-07 -3.75158e-05 0.000292505)
        Pressure : (-9.61844e-07 -3.65044e-05 0.00023976)
        Viscous  : (9.41053e-08 -1.01149e-06 5.27446e-05)
    writing force and moment files.

Time = 47

smoothSolver:  Solving for Ux, Initial residual = 4.00623e-05, Final residual = 1.28936e-06, No Iterations 2
smoothSolver:  Solving for Uy, Initial residual = 0.000483588, Final residual = 1.20381e-05, No Iterations 2
smoothSolver:  Solving for Uz, Initial residual = 0.00206298, Final residual = 4.57014e-05, No Iterations 2
GAMG:  Solving for p, Initial residual = 0.00310266, Final residual = 0.0001464, No Iterations 2
time step continuity errors : sum local = 3.71035e-07, global = -8.8405e-08, cumulative = 1.83642e-06
smoothSolver:  Solving for omega, Initial residual = 5.44357e-06, Final residual = 1.19471e-07, No Iterations 2
smoothSolver:  Solving for k, Initial residual = 0.00145773, Final residual = 1.93765e-05, No Iterations 2
ExecutionTime = 27.11 s  ClockTime = 27 s

forces forcesFish write:
    Sum of forces
        Total    : (0.0298155 -0.000466044 0.000123176)
        Pressure : (0.00878101 -0.000565619 0.000123847)
        Viscous  : (0.0210345 9.9575e-05 -6.715e-07)
    Sum of moments
        Total    : (-7.39303e-07 -3.61404e-05 0.000287791)
        Pressure : (-8.34275e-07 -3.51555e-05 0.000235053)
        Viscous  : (9.49722e-08 -9.84934e-07 5.27386e-05)
    writing force and moment files.

Time = 48

smoothSolver:  Solving for Ux, Initial residual = 3.77024e-05, Final residual = 1.21809e-06, No Iterations 2
smoothSolver:  Solving for Uy, Initial residual = 0.000449691, Final residual = 1.09526e-05, No Iterations 2
smoothSolver:  Solving for Uz, Initial residual = 0.00191059, Final residual = 4.1791e-05, No Iterations 2
GAMG:  Solving for p, Initial residual = 0.0029103, Final residual = 0.00014314, No Iterations 2
time step continuity errors : sum local = 3.64414e-07, global = -9.35801e-08, cumulative = 1.74284e-06
smoothSolver:  Solving for omega, Initial residual = 4.6078e-06, Final residual = 1.05716e-07, No Iterations 2
smoothSolver:  Solving for k, Initial residual = 0.00125853, Final residual = 1.63068e-05, No Iterations 2
ExecutionTime = 27.65 s  ClockTime = 28 s

forces forcesFish write:
    Sum of forces
        Total    : (0.0297197 -0.000480498 0.00011454)
        Pressure : (0.00875082 -0.00058017 0.000115276)
        Viscous  : (0.0209689 9.96721e-05 -7.35603e-07)
    Sum of moments
        Total    : (-6.22428e-07 -3.43878e-05 0.000283432)
        Pressure : (-7.18234e-07 -3.34274e-05 0.000230718)
        Viscous  : (9.58055e-08 -9.60334e-07 5.2714e-05)
    writing force and moment files.

Time = 49

smoothSolver:  Solving for Ux, Initial residual = 3.49063e-05, Final residual = 1.13981e-06, No Iterations 2
smoothSolver:  Solving for Uy, Initial residual = 0.00041638, Final residual = 1.01195e-05, No Iterations 2
smoothSolver:  Solving for Uz, Initial residual = 0.00176732, Final residual = 3.90198e-05, No Iterations 2
GAMG:  Solving for p, Initial residual = 0.00272138, Final residual = 0.000136241, No Iterations 2
time step continuity errors : sum local = 3.48008e-07, global = -8.53783e-08, cumulative = 1.65746e-06
smoothSolver:  Solving for omega, Initial residual = 3.90686e-06, Final residual = 9.3862e-08, No Iterations 2
smoothSolver:  Solving for k, Initial residual = 0.00107728, Final residual = 1.36575e-05, No Iterations 2
ExecutionTime = 28.17 s  ClockTime = 28 s

forces forcesFish write:
    Sum of forces
        Total    : (0.0296269 -0.000492808 0.000105453)
        Pressure : (0.00872158 -0.000592555 0.000106244)
        Viscous  : (0.0209053 9.97469e-05 -7.91219e-07)
    Sum of moments
        Total    : (-5.40227e-07 -3.26218e-05 0.000279491)
        Pressure : (-6.36814e-07 -3.16839e-05 0.000226816)
        Viscous  : (9.65876e-08 -9.37954e-07 5.26758e-05)
    writing force and moment files.

Time = 50

smoothSolver:  Solving for Ux, Initial residual = 3.26142e-05, Final residual = 1.07097e-06, No Iterations 2
smoothSolver:  Solving for Uy, Initial residual = 0.000385184, Final residual = 9.43465e-06, No Iterations 2
smoothSolver:  Solving for Uz, Initial residual = 0.00163925, Final residual = 3.68695e-05, No Iterations 2
GAMG:  Solving for p, Initial residual = 0.00253791, Final residual = 0.00012587, No Iterations 2
time step continuity errors : sum local = 3.22213e-07, global = -8.08281e-08, cumulative = 1.57663e-06
smoothSolver:  Solving for omega, Initial residual = 3.32395e-06, Final residual = 8.36271e-08, No Iterations 2
smoothSolver:  Solving for k, Initial residual = 0.000914562, Final residual = 1.13953e-05, No Iterations 2
ExecutionTime = 28.69 s  ClockTime = 29 s

forces forcesFish write:
    Sum of forces
        Total    : (0.0295375 -0.000503096 9.79882e-05)
        Pressure : (0.00869393 -0.000602908 9.88313e-05)
        Viscous  : (0.0208436 9.98122e-05 -8.43158e-07)
    Sum of moments
        Total    : (-5.04802e-07 -3.12304e-05 0.000276054)
        Pressure : (-6.02104e-07 -3.0313e-05 0.000223427)
        Viscous  : (9.73021e-08 -9.17407e-07 5.26271e-05)
    writing force and moment files.

Time = 51

smoothSolver:  Solving for Ux, Initial residual = 3.17382e-05, Final residual = 1.02391e-06, No Iterations 2
smoothSolver:  Solving for Uy, Initial residual = 0.00035855, Final residual = 8.84315e-06, No Iterations 2
smoothSolver:  Solving for Uz, Initial residual = 0.00152347, Final residual = 3.47516e-05, No Iterations 2
GAMG:  Solving for p, Initial residual = 0.00236177, Final residual = 0.000111241, No Iterations 2
time step continuity errors : sum local = 2.85221e-07, global = -8.00892e-08, cumulative = 1.49654e-06
smoothSolver:  Solving for omega, Initial residual = 2.84182e-06, Final residual = 7.47444e-08, No Iterations 2
smoothSolver:  Solving for k, Initial residual = 0.000770247, Final residual = 9.4794e-06, No Iterations 2
ExecutionTime = 29.23 s  ClockTime = 29 s

forces forcesFish write:
    Sum of forces
        Total    : (0.029452 -0.000511755 9.33377e-05)
        Pressure : (0.00866831 -0.00061163 9.42318e-05)
        Viscous  : (0.0207837 9.98755e-05 -8.94169e-07)
    Sum of moments
        Total    : (-5.12848e-07 -3.04274e-05 0.000273098)
        Pressure : (-6.10779e-07 -2.95286e-05 0.000220528)
        Viscous  : (9.79302e-08 -8.98785e-07 5.25706e-05)
    writing force and moment files.

Time = 52

smoothSolver:  Solving for Ux, Initial residual = 3.17139e-05, Final residual = 9.91335e-07, No Iterations 2
smoothSolver:  Solving for Uy, Initial residual = 0.000337029, Final residual = 8.30092e-06, No Iterations 2
smoothSolver:  Solving for Uz, Initial residual = 0.00141654, Final residual = 3.25939e-05, No Iterations 2
GAMG:  Solving for p, Initial residual = 0.00220571, Final residual = 9.56202e-05, No Iterations 2
time step continuity errors : sum local = 2.45547e-07, global = -7.27412e-08, cumulative = 1.4238e-06
smoothSolver:  Solving for omega, Initial residual = 2.44493e-06, Final residual = 6.69705e-08, No Iterations 2
smoothSolver:  Solving for k, Initial residual = 0.000643666, Final residual = 7.8665e-06, No Iterations 2
ExecutionTime = 29.78 s  ClockTime = 30 s

forces forcesFish write:
    Sum of forces
        Total    : (0.0293702 -0.000519198 9.15639e-05)
        Pressure : (0.00864456 -0.000619135 9.25106e-05)
        Viscous  : (0.0207257 9.99372e-05 -9.4663e-07)
    Sum of moments
        Total    : (-5.51539e-07 -3.02113e-05 0.000270536)
        Pressure : (-6.50006e-07 -2.93295e-05 0.00021803)
        Viscous  : (9.84669e-08 -8.81759e-07 5.25064e-05)
    writing force and moment files.

Time = 53

smoothSolver:  Solving for Ux, Initial residual = 3.12132e-05, Final residual = 9.55463e-07, No Iterations 2
smoothSolver:  Solving for Uy, Initial residual = 0.000319638, Final residual = 7.84696e-06, No Iterations 2
smoothSolver:  Solving for Uz, Initial residual = 0.00132559, Final residual = 3.06007e-05, No Iterations 2
GAMG:  Solving for p, Initial residual = 0.00207142, Final residual = 8.21867e-05, No Iterations 2
time step continuity errors : sum local = 2.11388e-07, global = -5.47601e-08, cumulative = 1.36904e-06
smoothSolver:  Solving for omega, Initial residual = 2.11882e-06, Final residual = 6.01139e-08, No Iterations 2
smoothSolver:  Solving for k, Initial residual = 0.000534114, Final residual = 6.51818e-06, No Iterations 2
ExecutionTime = 30.31 s  ClockTime = 31 s

forces forcesFish write:
    Sum of forces
        Total    : (0.0292918 -0.000525712 9.21437e-05)
        Pressure : (0.00862229 -0.000625706 9.31437e-05)
        Viscous  : (0.0206695 9.99943e-05 -1.00007e-06)
    Sum of moments
        Total    : (-6.06605e-07 -3.04738e-05 0.000268278)
        Pressure : (-7.05513e-07 -2.96071e-05 0.000215843)
        Viscous  : (9.89078e-08 -8.6675e-07 5.24347e-05)
    writing force and moment files.

Time = 54

smoothSolver:  Solving for Ux, Initial residual = 3.02627e-05, Final residual = 9.14751e-07, No Iterations 2
smoothSolver:  Solving for Uy, Initial residual = 0.000305743, Final residual = 7.44212e-06, No Iterations 2
smoothSolver:  Solving for Uz, Initial residual = 0.00125118, Final residual = 2.89625e-05, No Iterations 2
GAMG:  Solving for p, Initial residual = 0.00195888, Final residual = 7.60381e-05, No Iterations 2
time step continuity errors : sum local = 1.95883e-07, global = -2.78586e-08, cumulative = 1.34118e-06
smoothSolver:  Solving for omega, Initial residual = 1.85056e-06, Final residual = 5.40364e-08, No Iterations 2
smoothSolver:  Solving for k, Initial residual = 0.000440392, Final residual = 5.39629e-06, No Iterations 2
ExecutionTime = 30.83 s  ClockTime = 31 s

forces forcesFish write:
    Sum of forces
        Total    : (0.0292164 -0.000531432 9.44169e-05)
        Pressure : (0.00860132 -0.000631473 9.54716e-05)
        Viscous  : (0.0206151 0.000100041 -1.05479e-06)
    Sum of moments
        Total    : (-6.66055e-07 -3.10827e-05 0.000266268)
        Pressure : (-7.65323e-07 -3.02294e-05 0.000213913)
        Viscous  : (9.92682e-08 -8.53335e-07 5.23545e-05)
    writing force and moment files.

Time = 55

smoothSolver:  Solving for Ux, Initial residual = 2.89871e-05, Final residual = 8.70871e-07, No Iterations 2
smoothSolver:  Solving for Uy, Initial residual = 0.000291155, Final residual = 7.05298e-06, No Iterations 2
smoothSolver:  Solving for Uz, Initial residual = 0.00118728, Final residual = 2.76292e-05, No Iterations 2
GAMG:  Solving for p, Initial residual = 0.00186146, Final residual = 7.54278e-05, No Iterations 2
time step continuity errors : sum local = 1.94602e-07, global = 6.56691e-09, cumulative = 1.34775e-06
smoothSolver:  Solving for omega, Initial residual = 1.62955e-06, Final residual = 4.86363e-08, No Iterations 2
smoothSolver:  Solving for k, Initial residual = 0.00036108, Final residual = 4.46616e-06, No Iterations 2
ExecutionTime = 31.38 s  ClockTime = 32 s

forces forcesFish write:
    Sum of forces
        Total    : (0.0291442 -0.000536385 9.77281e-05)
        Pressure : (0.00858172 -0.000636458 9.88372e-05)
        Viscous  : (0.0205625 0.000100073 -1.10911e-06)
    Sum of moments
        Total    : (-7.21042e-07 -3.19063e-05 0.000264484)
        Pressure : (-8.20597e-07 -3.10647e-05 0.000212219)
        Viscous  : (9.95551e-08 -8.41562e-07 5.22651e-05)
    writing force and moment files.

Time = 56

smoothSolver:  Solving for Ux, Initial residual = 2.74892e-05, Final residual = 8.25424e-07, No Iterations 2
smoothSolver:  Solving for Uy, Initial residual = 0.000275992, Final residual = 6.68503e-06, No Iterations 2
smoothSolver:  Solving for Uz, Initial residual = 0.00112646, Final residual = 2.6487e-05, No Iterations 2
GAMG:  Solving for p, Initial residual = 0.00177423, Final residual = 7.79634e-05, No Iterations 2
time step continuity errors : sum local = 2.01421e-07, global = 3.66995e-08, cumulative = 1.38445e-06
smoothSolver:  Solving for omega, Initial residual = 1.44633e-06, Final residual = 4.38127e-08, No Iterations 2
smoothSolver:  Solving for k, Initial residual = 0.000294641, Final residual = 3.69707e-06, No Iterations 2
ExecutionTime = 31.91 s  ClockTime = 32 s

forces forcesFish write:
    Sum of forces
        Total    : (0.0290754 -0.000540581 0.000101512)
        Pressure : (0.0085637 -0.000640664 0.000102673)
        Viscous  : (0.0205117 0.000100084 -1.16119e-06)
    Sum of moments
        Total    : (-7.66343e-07 -3.28299e-05 0.000262916)
        Pressure : (-8.66124e-07 -3.19985e-05 0.00021075)
        Viscous  : (9.97807e-08 -8.31428e-07 5.21655e-05)
    writing force and moment files.

Time = 57

smoothSolver:  Solving for Ux, Initial residual = 2.558e-05, Final residual = 7.76104e-07, No Iterations 2
smoothSolver:  Solving for Uy, Initial residual = 0.000260631, Final residual = 6.33396e-06, No Iterations 2
smoothSolver:  Solving for Uz, Initial residual = 0.00106448, Final residual = 2.54192e-05, No Iterations 2
GAMG:  Solving for p, Initial residual = 0.00169294, Final residual = 7.78594e-05, No Iterations 2
time step continuity errors : sum local = 2.0143e-07, global = 5.6355e-08, cumulative = 1.4408e-06
smoothSolver:  Solving for omega, Initial residual = 1.2932e-06, Final residual = 3.94797e-08, No Iterations 2
smoothSolver:  Solving for k, Initial residual = 0.000239469, Final residual = 3.06197e-06, No Iterations 2
ExecutionTime = 32.43 s  ClockTime = 33 s

forces forcesFish write:
    Sum of forces
        Total    : (0.0290101 -0.000544054 0.000105349)
        Pressure : (0.00854751 -0.000644123 0.000106558)
        Viscous  : (0.0204626 0.00010007 -1.20906e-06)
    Sum of moments
        Total    : (-8.00028e-07 -3.37685e-05 0.000261551)
        Pressure : (-8.9999e-07 -3.29455e-05 0.000209495)
        Viscous  : (9.9962e-08 -8.22935e-07 5.20553e-05)
    writing force and moment files.

Time = 58

smoothSolver:  Solving for Ux, Initial residual = 2.30325e-05, Final residual = 7.20442e-07, No Iterations 2
smoothSolver:  Solving for Uy, Initial residual = 0.000245648, Final residual = 6.00782e-06, No Iterations 2
smoothSolver:  Solving for Uz, Initial residual = 0.0010031, Final residual = 2.44133e-05, No Iterations 2
GAMG:  Solving for p, Initial residual = 0.00161496, Final residual = 7.64767e-05, No Iterations 2
time step continuity errors : sum local = 1.9815e-07, global = 5.83394e-08, cumulative = 1.49914e-06
smoothSolver:  Solving for omega, Initial residual = 1.16382e-06, Final residual = 3.55841e-08, No Iterations 2
smoothSolver:  Solving for k, Initial residual = 0.000194066, Final residual = 2.53851e-06, No Iterations 2
ExecutionTime = 33.08 s  ClockTime = 33 s

forces forcesFish write:
    Sum of forces
        Total    : (0.0289488 -0.000546741 0.000108828)
        Pressure : (0.00853347 -0.00064677 0.000110079)
        Viscous  : (0.0204153 0.000100029 -1.25134e-06)
    Sum of moments
        Total    : (-8.21939e-07 -3.4635e-05 0.000260408)
        Pressure : (-9.22054e-07 -3.3819e-05 0.000208473)
        Viscous  : (1.00115e-07 -8.15987e-07 5.19345e-05)
    writing force and moment files.

Time = 59

smoothSolver:  Solving for Ux, Initial residual = 2.0033e-05, Final residual = 6.6061e-07, No Iterations 2
smoothSolver:  Solving for Uy, Initial residual = 0.000231203, Final residual = 5.70523e-06, No Iterations 2
smoothSolver:  Solving for Uz, Initial residual = 0.000943137, Final residual = 2.34805e-05, No Iterations 2
GAMG:  Solving for p, Initial residual = 0.0015387, Final residual = 7.51286e-05, No Iterations 2
time step continuity errors : sum local = 1.94996e-07, global = 5.42622e-08, cumulative = 1.55341e-06
smoothSolver:  Solving for omega, Initial residual = 1.0531e-06, Final residual = 3.20788e-08, No Iterations 2
smoothSolver:  Solving for k, Initial residual = 0.000156979, Final residual = 2.10734e-06, No Iterations 2
ExecutionTime = 33.65 s  ClockTime = 34 s

forces forcesFish write:
    Sum of forces
        Total    : (0.0288915 -0.000548461 0.000111485)
        Pressure : (0.00852169 -0.000648422 0.000112773)
        Viscous  : (0.0203698 9.99614e-05 -1.2873e-06)
    Sum of moments
        Total    : (-8.33354e-07 -3.53267e-05 0.00025954)
        Pressure : (-9.33611e-07 -3.45162e-05 0.000207737)
        Viscous  : (1.00257e-07 -8.10506e-07 5.18034e-05)
    writing force and moment files.

Time = 60

smoothSolver:  Solving for Ux, Initial residual = 1.7595e-05, Final residual = 6.11141e-07, No Iterations 2
smoothSolver:  Solving for Uy, Initial residual = 0.000217099, Final residual = 5.43571e-06, No Iterations 2
smoothSolver:  Solving for Uz, Initial residual = 0.000883321, Final residual = 2.26131e-05, No Iterations 2
GAMG:  Solving for p, Initial residual = 0.00146566, Final residual = 7.02255e-05, No Iterations 2
time step continuity errors : sum local = 1.82599e-07, global = 5.57719e-08, cumulative = 1.60918e-06
smoothSolver:  Solving for omega, Initial residual = 9.57051e-07, Final residual = 2.89116e-08, No Iterations 2
smoothSolver:  Solving for k, Initial residual = 0.000126882, Final residual = 1.75224e-06, No Iterations 2
ExecutionTime = 34.24 s  ClockTime = 34 s

forces forcesFish write:
    Sum of forces
        Total    : (0.0288378 -0.000549181 0.000113137)
        Pressure : (0.00851183 -0.000649048 0.000114454)
        Viscous  : (0.020326 9.98669e-05 -1.31683e-06)
    Sum of moments
        Total    : (-8.37698e-07 -3.58013e-05 0.000258957)
        Pressure : (-9.38101e-07 -3.49949e-05 0.000207294)
        Viscous  : (1.00402e-07 -8.06365e-07 5.16625e-05)
    writing force and moment files.

Time = 61

smoothSolver:  Solving for Ux, Initial residual = 1.64172e-05, Final residual = 5.79993e-07, No Iterations 2
smoothSolver:  Solving for Uy, Initial residual = 0.0002037, Final residual = 5.20999e-06, No Iterations 2
smoothSolver:  Solving for Uz, Initial residual = 0.000823644, Final residual = 2.1757e-05, No Iterations 2
GAMG:  Solving for p, Initial residual = 0.00139664, Final residual = 6.33801e-05, No Iterations 2
time step continuity errors : sum local = 1.65054e-07, global = 5.81359e-08, cumulative = 1.66731e-06
smoothSolver:  Solving for omega, Initial residual = 8.7282e-07, Final residual = 2.60491e-08, No Iterations 2
smoothSolver:  Solving for k, Initial residual = 0.000102588, Final residual = 1.45965e-06, No Iterations 2
ExecutionTime = 34.8 s  ClockTime = 35 s

forces forcesFish write:
    Sum of forces
        Total    : (0.0287873 -0.000549091 0.000113961)
        Pressure : (0.00850338 -0.000648838 0.000115301)
        Viscous  : (0.0202839 9.97466e-05 -1.34003e-06)
    Sum of moments
        Total    : (-8.39137e-07 -3.60985e-05 0.000258603)
        Pressure : (-9.39697e-07 -3.5295e-05 0.000207091)
        Viscous  : (1.0056e-07 -8.03538e-07 5.15124e-05)
    writing force and moment files.

Time = 62

smoothSolver:  Solving for Ux, Initial residual = 1.58165e-05, Final residual = 5.57929e-07, No Iterations 2
smoothSolver:  Solving for Uy, Initial residual = 0.000192183, Final residual = 5.01745e-06, No Iterations 2
smoothSolver:  Solving for Uz, Initial residual = 0.000768867, Final residual = 2.09331e-05, No Iterations 2
GAMG:  Solving for p, Initial residual = 0.00133259, Final residual = 5.52831e-05, No Iterations 2
time step continuity errors : sum local = 1.44132e-07, global = 5.41616e-08, cumulative = 1.72148e-06
smoothSolver:  Solving for omega, Initial residual = 7.98191e-07, Final residual = 2.34683e-08, No Iterations 2
smoothSolver:  Solving for k, Initial residual = 8.30604e-05, Final residual = 1.21835e-06, No Iterations 2
ExecutionTime = 35.37 s  ClockTime = 36 s

forces forcesFish write:
    Sum of forces
        Total    : (0.0287394 -0.000548458 0.000114283)
        Pressure : (0.00849593 -0.000648059 0.00011564)
        Viscous  : (0.0202434 9.96017e-05 -1.35759e-06)
    Sum of moments
        Total    : (-8.40875e-07 -3.62932e-05 0.000258401)
        Pressure : (-9.41617e-07 -3.54913e-05 0.000207047)
        Viscous  : (1.00741e-07 -8.01877e-07 5.13537e-05)
    writing force and moment files.

Time = 63

smoothSolver:  Solving for Ux, Initial residual = 1.52544e-05, Final residual = 5.3618e-07, No Iterations 2
smoothSolver:  Solving for Uy, Initial residual = 0.000180808, Final residual = 4.8327e-06, No Iterations 2
smoothSolver:  Solving for Uz, Initial residual = 0.000724756, Final residual = 2.02441e-05, No Iterations 2
GAMG:  Solving for p, Initial residual = 0.00127459, Final residual = 4.64677e-05, No Iterations 2
time step continuity errors : sum local = 1.21241e-07, global = 4.25471e-08, cumulative = 1.76402e-06
smoothSolver:  Solving for omega, Initial residual = 7.3157e-07, Final residual = 2.11436e-08, No Iterations 2
smoothSolver:  Solving for k, Initial residual = 6.74106e-05, Final residual = 1.01909e-06, No Iterations 2
ExecutionTime = 35.96 s  ClockTime = 36 s

forces forcesFish write:
    Sum of forces
        Total    : (0.0286938 -0.000547506 0.000114396)
        Pressure : (0.00848924 -0.00064694 0.000115767)
        Viscous  : (0.0202046 9.94336e-05 -1.37037e-06)
    Sum of moments
        Total    : (-8.44695e-07 -3.64543e-05 0.00025828)
[...]

Time = 144

smoothSolver:  Solving for Ux, Initial residual = 3.78441e-07, Final residual = 7.22459e-09, No Iterations 2
smoothSolver:  Solving for Uy, Initial residual = 6.38677e-06, Final residual = 1.6098e-07, No Iterations 2
smoothSolver:  Solving for Uz, Initial residual = 2.09866e-05, Final residual = 5.35201e-07, No Iterations 2
GAMG:  Solving for p, Initial residual = 3.22378e-05, Final residual = 1.65652e-06, No Iterations 2
time step continuity errors : sum local = 4.31673e-09, global = -1.78129e-09, cumulative = 1.61532e-06
smoothSolver:  Solving for omega, Initial residual = 7.80018e-09, Final residual = 7.80018e-09, No Iterations 0
smoothSolver:  Solving for k, Initial residual = 2.9698e-08, Final residual = 3.33535e-09, No Iterations 1
ExecutionTime = 81.48 s  ClockTime = 82 s

forces forcesFish write:
    Sum of forces
        Total    : (0.0278753 -0.000472268 0.000116317)
        Pressure : (0.0084034 -0.000561284 0.000116927)
        Viscous  : (0.0194719 8.90163e-05 -6.10421e-07)
    Sum of moments
        Total    : (-1.03579e-06 -4.15595e-05 0.000269574)
        Pressure : (-1.16232e-06 -4.03443e-05 0.000225289)
        Viscous  : (1.26532e-07 -1.21517e-06 4.42849e-05)
    writing force and moment files.

Time = 145

smoothSolver:  Solving for Ux, Initial residual = 3.63335e-07, Final residual = 6.86484e-09, No Iterations 2
smoothSolver:  Solving for Uy, Initial residual = 6.03353e-06, Final residual = 1.51533e-07, No Iterations 2
smoothSolver:  Solving for Uz, Initial residual = 1.98532e-05, Final residual = 5.04464e-07, No Iterations 2
GAMG:  Solving for p, Initial residual = 3.07132e-05, Final residual = 1.85785e-06, No Iterations 2
time step continuity errors : sum local = 4.84135e-09, global = -2.16461e-09, cumulative = 1.61315e-06
smoothSolver:  Solving for omega, Initial residual = 9.19947e-09, Final residual = 9.19947e-09, No Iterations 0
smoothSolver:  Solving for k, Initial residual = 2.80431e-08, Final residual = 3.1283e-09, No Iterations 1
ExecutionTime = 82.03 s  ClockTime = 82 s

forces forcesFish write:
    Sum of forces
        Total    : (0.0278752 -0.000472047 0.000116587)
        Pressure : (0.0084035 -0.000561071 0.000117199)
        Viscous  : (0.0194717 8.90244e-05 -6.11837e-07)
    Sum of moments
        Total    : (-1.03766e-06 -4.16594e-05 0.000269658)
        Pressure : (-1.16419e-06 -4.04449e-05 0.000225372)
        Viscous  : (1.26529e-07 -1.21454e-06 4.42863e-05)
    writing force and moment files.

Time = 146

smoothSolver:  Solving for Ux, Initial residual = 3.5311e-07, Final residual = 6.56554e-09, No Iterations 2
smoothSolver:  Solving for Uy, Initial residual = 5.70298e-06, Final residual = 1.42813e-07, No Iterations 2
smoothSolver:  Solving for Uz, Initial residual = 1.88044e-05, Final residual = 4.76211e-07, No Iterations 2
GAMG:  Solving for p, Initial residual = 2.92681e-05, Final residual = 1.99878e-06, No Iterations 2
time step continuity errors : sum local = 5.20856e-09, global = -2.34475e-09, cumulative = 1.61081e-06
smoothSolver:  Solving for omega, Initial residual = 1.0545e-08, Final residual = 1.5003e-09, No Iterations 1
smoothSolver:  Solving for k, Initial residual = 2.61721e-08, Final residual = 2.93139e-09, No Iterations 1
ExecutionTime = 82.63 s  ClockTime = 83 s

forces forcesFish write:
    Sum of forces
        Total    : (0.027875 -0.000471844 0.000116858)
        Pressure : (0.0084036 -0.00056087 0.000117476)
        Viscous  : (0.0194714 8.90266e-05 -6.18318e-07)
    Sum of moments
        Total    : (-1.03952e-06 -4.17594e-05 0.000269735)
        Pressure : (-1.16609e-06 -4.05475e-05 0.00022545)
        Viscous  : (1.2657e-07 -1.21189e-06 4.42855e-05)
    writing force and moment files.

Time = 147

smoothSolver:  Solving for Ux, Initial residual = 3.47733e-07, Final residual = 6.32931e-09, No Iterations 2
smoothSolver:  Solving for Uy, Initial residual = 5.39086e-06, Final residual = 1.34487e-07, No Iterations 2
smoothSolver:  Solving for Uz, Initial residual = 1.78157e-05, Final residual = 4.48975e-07, No Iterations 2
GAMG:  Solving for p, Initial residual = 2.7847e-05, Final residual = 2.04328e-06, No Iterations 2
time step continuity errors : sum local = 5.32447e-09, global = -2.34189e-09, cumulative = 1.60846e-06
smoothSolver:  Solving for omega, Initial residual = 7.24125e-09, Final residual = 7.24125e-09, No Iterations 0
smoothSolver:  Solving for k, Initial residual = 2.46821e-08, Final residual = 2.76661e-09, No Iterations 1
ExecutionTime = 83.18 s  ClockTime = 83 s

forces forcesFish write:
    Sum of forces
        Total    : (0.0278749 -0.000471647 0.000117129)
        Pressure : (0.00840371 -0.00056068 0.000117748)
        Viscous  : (0.0194711 8.90333e-05 -6.1899e-07)
    Sum of moments
        Total    : (-1.04139e-06 -4.18596e-05 0.00026981)
        Pressure : (-1.16795e-06 -4.06481e-05 0.000225524)
        Viscous  : (1.26565e-07 -1.21154e-06 4.42865e-05)
    writing force and moment files.

Time = 148

smoothSolver:  Solving for Ux, Initial residual = 3.46186e-07, Final residual = 6.15002e-09, No Iterations 2
smoothSolver:  Solving for Uy, Initial residual = 5.09815e-06, Final residual = 1.26825e-07, No Iterations 2
smoothSolver:  Solving for Uz, Initial residual = 1.68956e-05, Final residual = 4.24181e-07, No Iterations 2
GAMG:  Solving for p, Initial residual = 2.64377e-05, Final residual = 2.00139e-06, No Iterations 2
time step continuity errors : sum local = 5.21524e-09, global = -2.22774e-09, cumulative = 1.60624e-06
smoothSolver:  Solving for omega, Initial residual = 8.40911e-09, Final residual = 8.40911e-09, No Iterations 0
smoothSolver:  Solving for k, Initial residual = 2.32649e-08, Final residual = 2.59282e-09, No Iterations 1
ExecutionTime = 83.7 s  ClockTime = 84 s

forces forcesFish write:
    Sum of forces
        Total    : (0.0278747 -0.000471467 0.000117396)
        Pressure : (0.00840381 -0.000560502 0.000118019)
        Viscous  : (0.0194709 8.90353e-05 -6.23058e-07)
    Sum of moments
        Total    : (-1.04323e-06 -4.19585e-05 0.000269879)
        Pressure : (-1.16982e-06 -4.07486e-05 0.000225593)
        Viscous  : (1.26592e-07 -1.20984e-06 4.42859e-05)
    writing force and moment files.

Time = 149

smoothSolver:  Solving for Ux, Initial residual = 3.46835e-07, Final residual = 6.01147e-09, No Iterations 2
smoothSolver:  Solving for Uy, Initial residual = 4.82184e-06, Final residual = 1.19538e-07, No Iterations 2
smoothSolver:  Solving for Uz, Initial residual = 1.60371e-05, Final residual = 4.00701e-07, No Iterations 2
GAMG:  Solving for p, Initial residual = 2.50108e-05, Final residual = 1.87473e-06, No Iterations 2
time step continuity errors : sum local = 4.88511e-09, global = -2.01295e-09, cumulative = 1.60422e-06
smoothSolver:  Solving for omega, Initial residual = 9.52448e-09, Final residual = 9.52448e-09, No Iterations 0
smoothSolver:  Solving for k, Initial residual = 2.19576e-08, Final residual = 2.43266e-09, No Iterations 1
ExecutionTime = 84.21 s  ClockTime = 84 s

forces forcesFish write:
    Sum of forces
        Total    : (0.0278746 -0.000471294 0.000117659)
        Pressure : (0.00840391 -0.000560334 0.000118282)
        Viscous  : (0.0194707 8.90405e-05 -6.22904e-07)
    Sum of moments
        Total    : (-1.04506e-06 -4.20559e-05 0.000269945)
        Pressure : (-1.17164e-06 -4.08461e-05 0.000225659)
        Viscous  : (1.26584e-07 -1.2098e-06 4.42866e-05)
    writing force and moment files.

Time = 150

smoothSolver:  Solving for Ux, Initial residual = 3.47863e-07, Final residual = 5.89326e-09, No Iterations 2
smoothSolver:  Solving for Uy, Initial residual = 4.56591e-06, Final residual = 1.12672e-07, No Iterations 2
smoothSolver:  Solving for Uz, Initial residual = 1.52398e-05, Final residual = 3.78361e-07, No Iterations 2
GAMG:  Solving for p, Initial residual = 2.35918e-05, Final residual = 1.69187e-06, No Iterations 2
time step continuity errors : sum local = 4.40856e-09, global = -1.71688e-09, cumulative = 1.60251e-06
smoothSolver:  Solving for omega, Initial residual = 1.05659e-08, Final residual = 1.48664e-09, No Iterations 1
smoothSolver:  Solving for k, Initial residual = 2.04563e-08, Final residual = 2.28131e-09, No Iterations 1
ExecutionTime = 84.73 s  ClockTime = 85 s

forces forcesFish write:
    Sum of forces
        Total    : (0.0278745 -0.000471136 0.000117916)
        Pressure : (0.00840401 -0.000560178 0.000118542)
        Viscous  : (0.0194705 8.90419e-05 -6.25625e-07)
    Sum of moments
        Total    : (-1.04684e-06 -4.2151e-05 0.000270006)
        Pressure : (-1.17344e-06 -4.09424e-05 0.00022572)
        Viscous  : (1.26603e-07 -1.20862e-06 4.42859e-05)
    writing force and moment files.

Time = 151

smoothSolver:  Solving for Ux, Initial residual = 3.47838e-07, Final residual = 5.77679e-09, No Iterations 2
smoothSolver:  Solving for Uy, Initial residual = 4.32517e-06, Final residual = 1.05996e-07, No Iterations 2
smoothSolver:  Solving for Uz, Initial residual = 1.44698e-05, Final residual = 3.5613e-07, No Iterations 2
GAMG:  Solving for p, Initial residual = 2.21777e-05, Final residual = 1.47025e-06, No Iterations 2
time step continuity errors : sum local = 3.83104e-09, global = -1.33243e-09, cumulative = 1.60117e-06
smoothSolver:  Solving for omega, Initial residual = 6.90505e-09, Final residual = 6.90505e-09, No Iterations 0
smoothSolver:  Solving for k, Initial residual = 1.93096e-08, Final residual = 2.16335e-09, No Iterations 1
ExecutionTime = 85.23 s  ClockTime = 85 s

forces forcesFish write:
    Sum of forces
        Total    : (0.0278744 -0.000470985 0.000118167)
        Pressure : (0.00840411 -0.000560031 0.000118792)
        Viscous  : (0.0194703 8.90459e-05 -6.24998e-07)
    Sum of moments
        Total    : (-1.04859e-06 -4.22441e-05 0.000270064)
        Pressure : (-1.17519e-06 -4.10353e-05 0.000225777)
        Viscous  : (1.26594e-07 -1.20876e-06 4.42864e-05)
    writing force and moment files.

Time = 152

smoothSolver:  Solving for Ux, Initial residual = 3.44131e-07, Final residual = 5.6305e-09, No Iterations 2
smoothSolver:  Solving for Uy, Initial residual = 4.09925e-06, Final residual = 9.98129e-08, No Iterations 2
smoothSolver:  Solving for Uz, Initial residual = 1.37466e-05, Final residual = 3.35614e-07, No Iterations 2
GAMG:  Solving for p, Initial residual = 2.08164e-05, Final residual = 1.23991e-06, No Iterations 2
time step continuity errors : sum local = 3.23085e-09, global = -8.73106e-10, cumulative = 1.6003e-06
smoothSolver:  Solving for omega, Initial residual = 7.81705e-09, Final residual = 7.81705e-09, No Iterations 0
smoothSolver:  Solving for k, Initial residual = 1.82231e-08, Final residual = 2.02705e-09, No Iterations 1
ExecutionTime = 85.79 s  ClockTime = 86 s

forces forcesFish write:
    Sum of forces
        Total    : (0.0278743 -0.000470846 0.000118411)
        Pressure : (0.0084042 -0.000559893 0.000119038)
        Viscous  : (0.0194701 8.9047e-05 -6.26462e-07)
    Sum of moments
        Total    : (-1.0503e-06 -4.23345e-05 0.000270117)
        Pressure : (-1.17691e-06 -4.11264e-05 0.000225831)
        Viscous  : (1.26605e-07 -1.20807e-06 4.42857e-05)
    writing force and moment files.

Time = 153

smoothSolver:  Solving for Ux, Initial residual = 3.35986e-07, Final residual = 5.4399e-09, No Iterations 2
smoothSolver:  Solving for Uy, Initial residual = 3.88247e-06, Final residual = 9.39293e-08, No Iterations 2
smoothSolver:  Solving for Uz, Initial residual = 1.30542e-05, Final residual = 3.16116e-07, No Iterations 2
GAMG:  Solving for p, Initial residual = 1.95334e-05, Final residual = 1.04042e-06, No Iterations 2
time step continuity errors : sum local = 2.71103e-09, global = -3.57783e-10, cumulative = 1.59994e-06
smoothSolver:  Solving for omega, Initial residual = 8.6887e-09, Final residual = 8.6887e-09, No Iterations 0
smoothSolver:  Solving for k, Initial residual = 1.72408e-08, Final residual = 1.9056e-09, No Iterations 1
ExecutionTime = 86.29 s  ClockTime = 87 s

forces forcesFish write:
    Sum of forces
        Total    : (0.0278742 -0.000470714 0.000118649)
        Pressure : (0.00840429 -0.000559764 0.000119275)
        Viscous  : (0.0194699 8.905e-05 -6.25467e-07)
    Sum of moments
        Total    : (-1.05198e-06 -4.24228e-05 0.000270167)
        Pressure : (-1.17857e-06 -4.12144e-05 0.000225881)
        Viscous  : (1.26596e-07 -1.20836e-06 4.42859e-05)
    writing force and moment files.

Time = 154

smoothSolver:  Solving for Ux, Initial residual = 3.24151e-07, Final residual = 5.21098e-09, No Iterations 2
smoothSolver:  Solving for Uy, Initial residual = 3.67363e-06, Final residual = 8.83506e-08, No Iterations 2
smoothSolver:  Solving for Uz, Initial residual = 1.2393e-05, Final residual = 2.97664e-07, No Iterations 2
GAMG:  Solving for p, Initial residual = 1.83863e-05, Final residual = 8.99607e-07, No Iterations 2
time step continuity errors : sum local = 2.34411e-09, global = 1.71531e-10, cumulative = 1.60012e-06
smoothSolver:  Solving for omega, Initial residual = 9.50398e-09, Final residual = 9.50398e-09, No Iterations 0
smoothSolver:  Solving for k, Initial residual = 1.63409e-08, Final residual = 1.79415e-09, No Iterations 1
ExecutionTime = 86.81 s  ClockTime = 87 s

forces forcesFish write:
    Sum of forces
        Total    : (0.0278742 -0.000470594 0.00011888)
        Pressure : (0.00840438 -0.000559644 0.000119507)
        Viscous  : (0.0194698 8.90506e-05 -6.26404e-07)
    Sum of moments
        Total    : (-1.0536e-06 -4.25087e-05 0.000270213)
        Pressure : (-1.18021e-06 -4.13008e-05 0.000225928)
        Viscous  : (1.26605e-07 -1.20787e-06 4.42852e-05)
    writing force and moment files.

Time = 155

smoothSolver:  Solving for Ux, Initial residual = 3.09477e-07, Final residual = 4.95384e-09, No Iterations 2
smoothSolver:  Solving for Uy, Initial residual = 3.47009e-06, Final residual = 8.30536e-08, No Iterations 2
smoothSolver:  Solving for Uz, Initial residual = 1.1759e-05, Final residual = 2.80302e-07, No Iterations 2
GAMG:  Solving for p, Initial residual = 1.73815e-05, Final residual = 8.22452e-07, No Iterations 2
time step continuity errors : sum local = 2.14307e-09, global = 6.87924e-10, cumulative = 1.6008e-06
smoothSolver:  Solving for omega, Initial residual = 1.02853e-08, Final residual = 1.44337e-09, No Iterations 1
smoothSolver:  Solving for k, Initial residual = 1.51834e-08, Final residual = 1.68778e-09, No Iterations 1
ExecutionTime = 87.31 s  ClockTime = 88 s

forces forcesFish write:
    Sum of forces
        Total    : (0.0278741 -0.000470479 0.000119105)
        Pressure : (0.00840446 -0.000559532 0.00011973)
        Viscous  : (0.0194696 8.90531e-05 -6.25005e-07)
    Sum of moments
        Total    : (-1.0552e-06 -4.25925e-05 0.000270257)
        Pressure : (-1.18179e-06 -4.13842e-05 0.000225972)
        Viscous  : (1.26594e-07 -1.20831e-06 4.42853e-05)
    writing force and moment files.

Time = 156

smoothSolver:  Solving for Ux, Initial residual = 2.92916e-07, Final residual = 4.67868e-09, No Iterations 2
smoothSolver:  Solving for Uy, Initial residual = 3.27165e-06, Final residual = 7.78951e-08, No Iterations 2
smoothSolver:  Solving for Uz, Initial residual = 1.11441e-05, Final residual = 2.63259e-07, No Iterations 2
GAMG:  Solving for p, Initial residual = 1.65347e-05, Final residual = 8.28273e-07, No Iterations 2
time step continuity errors : sum local = 2.15825e-09, global = 1.08536e-09, cumulative = 1.60189e-06
smoothSolver:  Solving for omega, Initial residual = 6.48885e-09, Final residual = 6.48885e-09, No Iterations 0
smoothSolver:  Solving for k, Initial residual = 1.43667e-08, Final residual = 1.61242e-09, No Iterations 1
ExecutionTime = 87.85 s  ClockTime = 88 s

forces forcesFish write:
    Sum of forces
        Total    : (0.027874 -0.000470375 0.000119324)
        Pressure : (0.00840454 -0.000559429 0.00011995)
        Viscous  : (0.0194695 8.90531e-05 -6.25885e-07)
    Sum of moments
        Total    : (-1.05675e-06 -4.2674e-05 0.000270297)
        Pressure : (-1.18335e-06 -4.14662e-05 0.000226012)
        Viscous  : (1.26602e-07 -1.20784e-06 4.42846e-05)
    writing force and moment files.

Time = 157

smoothSolver:  Solving for Ux, Initial residual = 2.73456e-07, Final residual = 4.37635e-09, No Iterations 2
smoothSolver:  Solving for Uy, Initial residual = 3.08258e-06, Final residual = 7.31843e-08, No Iterations 2
smoothSolver:  Solving for Uz, Initial residual = 1.05636e-05, Final residual = 2.48033e-07, No Iterations 2
GAMG:  Solving for p, Initial residual = 1.58147e-05, Final residual = 9.53678e-07, No Iterations 2
time step continuity errors : sum local = 2.48504e-09, global = 1.34049e-09, cumulative = 1.60323e-06
smoothSolver:  Solving for omega, Initial residual = 7.1711e-09, Final residual = 7.1711e-09, No Iterations 0
smoothSolver:  Solving for k, Initial residual = 1.35611e-08, Final residual = 1.50934e-09, No Iterations 1
ExecutionTime = 88.36 s  ClockTime = 89 s

forces forcesFish write:
    Sum of forces
        Total    : (0.027874 -0.000470277 0.000119537)
        Pressure : (0.00840461 -0.000559332 0.000120162)
        Viscous  : (0.0194694 8.90553e-05 -6.24215e-07)
    Sum of moments
        Total    : (-1.05827e-06 -4.27535e-05 0.000270334)
        Pressure : (-1.18486e-06 -4.15451e-05 0.000226049)
        Viscous  : (1.2659e-07 -1.20839e-06 4.42847e-05)
    writing force and moment files.

Time = 158

smoothSolver:  Solving for Ux, Initial residual = 2.5061e-07, Final residual = 4.03945e-09, No Iterations 2
smoothSolver:  Solving for Uy, Initial residual = 2.90372e-06, Final residual = 6.87828e-08, No Iterations 2
smoothSolver:  Solving for Uz, Initial residual = 1.00085e-05, Final residual = 2.33695e-07, No Iterations 2
GAMG:  Solving for p, Initial residual = 1.51595e-05, Final residual = 1.05927e-06, No Iterations 2
time step continuity errors : sum local = 2.7602e-09, global = 1.45296e-09, cumulative = 1.60468e-06
smoothSolver:  Solving for omega, Initial residual = 7.81474e-09, Final residual = 7.81474e-09, No Iterations 0
smoothSolver:  Solving for k, Initial residual = 1.28206e-08, Final residual = 1.41632e-09, No Iterations 1
ExecutionTime = 88.89 s  ClockTime = 89 s

forces forcesFish write:
    Sum of forces
        Total    : (0.0278739 -0.000470189 0.000119745)
        Pressure : (0.00840469 -0.000559244 0.00012037)
        Viscous  : (0.0194692 8.90548e-05 -6.25271e-07)
    Sum of moments
        Total    : (-1.05975e-06 -4.28308e-05 0.000270368)
        Pressure : (-1.18635e-06 -4.1623e-05 0.000226084)
        Viscous  : (1.266e-07 -1.20785e-06 4.42838e-05)
    writing force and moment files.

Time = 159

smoothSolver:  Solving for Ux, Initial residual = 2.24301e-07, Final residual = 3.66715e-09, No Iterations 2
smoothSolver:  Solving for Uy, Initial residual = 2.73503e-06, Final residual = 6.46506e-08, No Iterations 2
smoothSolver:  Solving for Uz, Initial residual = 9.47663e-06, Final residual = 2.20202e-07, No Iterations 2
GAMG:  Solving for p, Initial residual = 1.45211e-05, Final residual = 1.11188e-06, No Iterations 2
time step continuity errors : sum local = 2.89733e-09, global = 1.4535e-09, cumulative = 1.60614e-06
smoothSolver:  Solving for omega, Initial residual = 8.43256e-09, Final residual = 8.43256e-09, No Iterations 0
smoothSolver:  Solving for k, Initial residual = 1.21164e-08, Final residual = 1.33022e-09, No Iterations 1
ExecutionTime = 89.4 s  ClockTime = 90 s


SIMPLE solution converged in 159 iterations

forces forcesFish write:
    Sum of forces
        Total    : (0.0278739 -0.000470106 0.000119947)
        Pressure : (0.00840476 -0.000559163 0.00012057)
        Viscous  : (0.0194691 8.90568e-05 -6.2345e-07)
    Sum of moments
        Total    : (-1.0612e-06 -4.29062e-05 0.000270399)
        Pressure : (-1.18778e-06 -4.16977e-05 0.000226115)
        Viscous  : (1.26586e-07 -1.20846e-06 4.4284e-05)
    writing force and moment files.

End

