/*---------------------------------------------------------------------------*\
| =========                 |                                                 |
| \\      /  F ield         | OpenFOAM: The Open Source CFD Toolbox           |
|  \\    /   O peration     | Version:  2512                                  |
|   \\  /    A nd           | Website:  www.openfoam.com                      |
|    \\/     M anipulation  |                                                 |
\*---------------------------------------------------------------------------*/
Build  : _bd2b6720-20260127 OPENFOAM=2512 version=2512
Arch   : "LSB;label=32;scalar=64"
Exec   : simpleFoam
Date   : Mar 27 2026
Time   : 17:06:00
Host   : mathias-laptop
PID    : 209480
I/O    : uncollated
Case   : /home/mat/OpenFOAM/mat-run/speed_sweep_runs/U_0p2
nProcs : 1
trapFpe: Floating point exception trapping enabled (FOAM_SIGFPE).
memory pool : not available
fileModificationChecking : Monitoring run-time modified files using timeStampMaster (fileModificationSkew 5, maxFileModificationPolls 20)
allowSystemOperations : Allowing user-supplied system call operations

// * * * * * * * * * * * * * * * * * * * * * * * * * * * * * * * * * * * * * //
Create time

Create mesh for time = 0


SIMPLE: convergence criteria
    field p	 tolerance 0.0001
    field U	 tolerance 1e-05
    field "(k|omega)"	 tolerance 1e-05

Reading field p

Reading field U

Reading/calculating face flux field phi

Selecting incompressible transport model Newtonian
Selecting turbulence model type RAS
Selecting RAS turbulence model kOmegaSST
Selecting patchDistMethod meshWave
RAS
{
    RASModel        kOmegaSST;
    turbulence      on;
    printCoeffs     on;
    alphaK1         0.85;
    alphaK2         1;
    alphaOmega1     0.5;
    alphaOmega2     0.856;
    gamma1          0.555556;
    gamma2          0.44;
    beta1           0.075;
    beta2           0.0828;
    betaStar        0.09;
    a1              0.31;
    b1              1;
    c1              10;
    F3              false;
    decayControl    false;
    kInf            0;
    omegaInf        0;
}

No MRF models present

No finite volume options present

Starting time loop

forces forcesFish:
    rho: rhoInf
    Freestream density (rhoInf) set to 1000
    Not including porosity effects

Time = 1

smoothSolver:  Solving for Ux, Initial residual = 1, Final residual = 0.0250481, No Iterations 2
smoothSolver:  Solving for Uy, Initial residual = 1, Final residual = 0.0997244, No Iterations 1
smoothSolver:  Solving for Uz, Initial residual = 1, Final residual = 0.096174, No Iterations 1
GAMG:  Solving for p, Initial residual = 1, Final residual = 0.0577748, No Iterations 5
time step continuity errors : sum local = 1.56833e-05, global = -2.29207e-06, cumulative = -2.29207e-06
smoothSolver:  Solving for omega, Initial residual = 0.0166345, Final residual = 0.00104934, No Iterations 1
bounding omega, min: -17.7487 max: 11363.5 average: 124.033
smoothSolver:  Solving for k, Initial residual = 1, Final residual = 0.0737796, No Iterations 1
ExecutionTime = 2.98 s  ClockTime = 3 s

forces forcesFish write:
    Sum of forces
        Total    : (1.99796 -0.0276746 -0.00943392)
        Pressure : (1.90973 -0.0276735 -0.00941827)
        Viscous  : (0.0882202 -1.04059e-06 -1.5648e-05)
    Sum of moments
        Total    : (0.000274028 0.00242739 0.0267193)
        Pressure : (0.000273543 0.00243265 0.0262264)
        Viscous  : (4.84653e-07 -5.2599e-06 0.000492877)
    writing force and moment files.

Time = 2

smoothSolver:  Solving for Ux, Initial residual = 0.025212, Final residual = 0.00212142, No Iterations 2
smoothSolver:  Solving for Uy, Initial residual = 0.339583, Final residual = 0.0324765, No Iterations 2
smoothSolver:  Solving for Uz, Initial residual = 0.34513, Final residual = 0.0336807, No Iterations 2
GAMG:  Solving for p, Initial residual = 0.0607499, Final residual = 0.00518439, No Iterations 3
time step continuity errors : sum local = 2.74134e-05, global = -2.15965e-06, cumulative = -4.45172e-06
smoothSolver:  Solving for omega, Initial residual = 0.00766951, Final residual = 0.000578468, No Iterations 1
smoothSolver:  Solving for k, Initial residual = 0.37826, Final residual = 0.0332469, No Iterations 1
ExecutionTime = 3.86 s  ClockTime = 3 s

forces forcesFish write:
    Sum of forces
        Total    : (2.48045 -0.0189057 -0.0122047)
        Pressure : (2.40365 -0.0186006 -0.0122256)
        Viscous  : (0.0768081 -0.000305051 2.08601e-05)
    Sum of moments
        Total    : (0.000390798 0.00300122 0.0355221)
        Pressure : (0.000390612 0.0030222 0.0352069)
        Viscous  : (1.85693e-07 -2.0981e-05 0.000315198)
    writing force and moment files.

Time = 3

smoothSolver:  Solving for Ux, Initial residual = 0.00799752, Final residual = 0.000673187, No Iterations 2
smoothSolver:  Solving for Uy, Initial residual = 0.147379, Final residual = 0.0139091, No Iterations 2
smoothSolver:  Solving for Uz, Initial residual = 0.223245, Final residual = 0.0214672, No Iterations 2
GAMG:  Solving for p, Initial residual = 0.152909, Final residual = 0.0111529, No Iterations 2
time step continuity errors : sum local = 4.39293e-05, global = -2.54473e-06, cumulative = -6.99645e-06
smoothSolver:  Solving for omega, Initial residual = 0.00457924, Final residual = 0.000401867, No Iterations 1
smoothSolver:  Solving for k, Initial residual = 0.221501, Final residual = 0.021738, No Iterations 1
ExecutionTime = 4.69 s  ClockTime = 4 s

forces forcesFish write:
    Sum of forces
        Total    : (2.26143 -0.00776274 -0.0110681)
        Pressure : (2.19328 -0.00729135 -0.0111274)
        Viscous  : (0.0681511 -0.000471394 5.92988e-05)
    Sum of moments
        Total    : (0.000366073 0.00284556 0.0339241)
        Pressure : (0.00036626 0.00288129 0.0337504)
        Viscous  : (-1.86907e-07 -3.57329e-05 0.000173723)
    writing force and moment files.

Time = 4

smoothSolver:  Solving for Ux, Initial residual = 0.0041376, Final residual = 0.000341208, No Iterations 2
smoothSolver:  Solving for Uy, Initial residual = 0.100499, Final residual = 0.00935129, No Iterations 2
smoothSolver:  Solving for Uz, Initial residual = 0.145443, Final residual = 0.0137834, No Iterations 2
GAMG:  Solving for p, Initial residual = 0.479911, Final residual = 0.0457417, No Iterations 2
time step continuity errors : sum local = 7.97999e-05, global = -2.68822e-06, cumulative = -9.68467e-06
smoothSolver:  Solving for omega, Initial residual = 0.00304056, Final residual = 0.000294013, No Iterations 1
smoothSolver:  Solving for k, Initial residual = 0.146051, Final residual = 0.00167875, No Iterations 2
ExecutionTime = 5.53 s  ClockTime = 5 s

forces forcesFish write:
    Sum of forces
        Total    : (1.68096 0.00369716 -0.00778856)
        Pressure : (1.61903 0.00418718 -0.00787444)
        Viscous  : (0.0619306 -0.000490022 8.58858e-05)
    Sum of moments
        Total    : (0.000271876 0.0022763 0.0265836)
        Pressure : (0.000272474 0.00232088 0.0264961)
        Viscous  : (-5.97671e-07 -4.45727e-05 8.74362e-05)
    writing force and moment files.

Time = 5

smoothSolver:  Solving for Ux, Initial residual = 0.00240335, Final residual = 0.00018911, No Iterations 2
smoothSolver:  Solving for Uy, Initial residual = 0.0693508, Final residual = 0.00631193, No Iterations 2
smoothSolver:  Solving for Uz, Initial residual = 0.0914522, Final residual = 0.00846173, No Iterations 2
GAMG:  Solving for p, Initial residual = 0.137533, Final residual = 0.00644229, No Iterations 3
time step continuity errors : sum local = 4.10744e-05, global = -1.7136e-06, cumulative = -1.13983e-05
smoothSolver:  Solving for omega, Initial residual = 0.0021683, Final residual = 2.50913e-05, No Iterations 2
smoothSolver:  Solving for k, Initial residual = 0.101587, Final residual = 0.0012841, No Iterations 2
ExecutionTime = 6.44 s  ClockTime = 6 s

forces forcesFish write:
    Sum of forces
        Total    : (0.924224 0.0155367 -0.00409355)
        Pressure : (0.866281 0.0159101 -0.00419282)
        Viscous  : (0.0579429 -0.000373381 9.92629e-05)
    Sum of moments
        Total    : (0.000171699 0.00133902 0.0158366)
        Pressure : (0.000172623 0.00138684 0.015778)
        Viscous  : (-9.24717e-07 -4.78158e-05 5.86027e-05)
    writing force and moment files.

Time = 6

smoothSolver:  Solving for Ux, Initial residual = 0.00135147, Final residual = 9.018e-05, No Iterations 2
smoothSolver:  Solving for Uy, Initial residual = 0.0400067, Final residual = 0.00322957, No Iterations 2
smoothSolver:  Solving for Uz, Initial residual = 0.0461694, Final residual = 0.00382894, No Iterations 2
GAMG:  Solving for p, Initial residual = 0.0649762, Final residual = 0.00351449, No Iterations 3
time step continuity errors : sum local = 3.97203e-05, global = -6.11604e-07, cumulative = -1.20099e-05
smoothSolver:  Solving for omega, Initial residual = 0.00155407, Final residual = 1.96436e-05, No Iterations 2
smoothSolver:  Solving for k, Initial residual = 0.0753778, Final residual = 0.00104579, No Iterations 2
ExecutionTime = 7.35 s  ClockTime = 7 s

forces forcesFish write:
    Sum of forces
        Total    : (0.259154 0.0282055 -0.000951573)
        Pressure : (0.203425 0.0284196 -0.00105628)
        Viscous  : (0.0557292 -0.000214036 0.000104707)
    Sum of moments
        Total    : (8.38941e-05 0.000466216 0.00637168)
        Pressure : (8.49934e-05 0.000513851 0.006302)
        Viscous  : (-1.09925e-06 -4.76355e-05 6.96804e-05)
    writing force and moment files.

Time = 7

smoothSolver:  Solving for Ux, Initial residual = 0.00100542, Final residual = 4.41199e-05, No Iterations 2
smoothSolver:  Solving for Uy, Initial residual = 0.0325685, Final residual = 0.00162592, No Iterations 2
smoothSolver:  Solving for Uz, Initial residual = 0.030618, Final residual = 0.00138792, No Iterations 2
GAMG:  Solving for p, Initial residual = 0.0353091, Final residual = 0.00204513, No Iterations 3
time step continuity errors : sum local = 3.10162e-05, global = 7.81829e-07, cumulative = -1.12281e-05
smoothSolver:  Solving for omega, Initial residual = 0.0011648, Final residual = 1.56097e-05, No Iterations 2
smoothSolver:  Solving for k, Initial residual = 0.0590323, Final residual = 0.000882843, No Iterations 2
ExecutionTime = 8.25 s  ClockTime = 8 s

forces forcesFish write:
    Sum of forces
        Total    : (-0.203737 0.0392316 0.00100802)
        Pressure : (-0.258521 0.0393037 0.000899431)
        Viscous  : (0.0547831 -7.21853e-05 0.000108585)
    Sum of moments
        Total    : (2.43645e-05 -0.000172167 -0.000177444)
        Pressure : (2.55868e-05 -0.00012571 -0.000279929)
        Viscous  : (-1.22225e-06 -4.64566e-05 0.000102485)
    writing force and moment files.

Time = 8

smoothSolver:  Solving for Ux, Initial residual = 0.00109172, Final residual = 6.09947e-05, No Iterations 2
smoothSolver:  Solving for Uy, Initial residual = 0.0529563, Final residual = 0.00400432, No Iterations 2
smoothSolver:  Solving for Uz, Initial residual = 0.0454648, Final residual = 0.00346223, No Iterations 2
GAMG:  Solving for p, Initial residual = 0.0240624, Final residual = 0.0011264, No Iterations 3
time step continuity errors : sum local = 1.95944e-05, global = 1.90535e-06, cumulative = -9.32271e-06
smoothSolver:  Solving for omega, Initial residual = 0.000905471, Final residual = 1.2669e-05, No Iterations 2
smoothSolver:  Solving for k, Initial residual = 0.0482234, Final residual = 0.000767119, No Iterations 2
ExecutionTime = 9.12 s  ClockTime = 9 s

forces forcesFish write:
    Sum of forces
        Total    : (-0.430528 0.0455202 0.00153872)
        Pressure : (-0.485073 0.0454943 0.00142978)
        Viscous  : (0.0545446 2.58082e-05 0.000108948)
    Sum of moments
        Total    : (-3.22717e-06 -0.000489897 -0.00351083)
        Pressure : (-1.93983e-06 -0.000445607 -0.00365221)
        Viscous  : (-1.28734e-06 -4.42891e-05 0.000141382)
    writing force and moment files.

Time = 9

smoothSolver:  Solving for Ux, Initial residual = 0.0012637, Final residual = 8.26486e-05, No Iterations 2
smoothSolver:  Solving for Uy, Initial residual = 0.0685826, Final residual = 0.00563308, No Iterations 2
smoothSolver:  Solving for Uz, Initial residual = 0.058725, Final residual = 0.00490931, No Iterations 2
GAMG:  Solving for p, Initial residual = 0.0256861, Final residual = 0.00182481, No Iterations 2
time step continuity errors : sum local = 3.24365e-05, global = 2.99067e-06, cumulative = -6.33204e-06
smoothSolver:  Solving for omega, Initial residual = 0.000722783, Final residual = 1.05084e-05, No Iterations 2
smoothSolver:  Solving for k, Initial residual = 0.0406826, Final residual = 0.000681065, No Iterations 2
ExecutionTime = 9.97 s  ClockTime = 10 s

forces forcesFish write:
    Sum of forces
        Total    : (-0.444973 0.0457063 0.00101029)
        Pressure : (-0.499509 0.0456313 0.000908095)
        Viscous  : (0.0545364 7.49956e-05 0.000102197)
    Sum of moments
        Total    : (-7.70384e-06 -0.00052056 -0.00387754)
        Pressure : (-6.44382e-06 -0.000479836 -0.00405232)
        Viscous  : (-1.26002e-06 -4.07242e-05 0.000174781)
    writing force and moment files.

Time = 10

smoothSolver:  Solving for Ux, Initial residual = 0.00133646, Final residual = 8.89638e-05, No Iterations 2
smoothSolver:  Solving for Uy, Initial residual = 0.064351, Final residual = 0.00529637, No Iterations 2
smoothSolver:  Solving for Uz, Initial residual = 0.0599782, Final residual = 0.00502884, No Iterations 2
GAMG:  Solving for p, Initial residual = 0.0321877, Final residual = 0.00235472, No Iterations 2
time step continuity errors : sum local = 3.91854e-05, global = 4.24165e-06, cumulative = -2.09039e-06
smoothSolver:  Solving for omega, Initial residual = 0.000587857, Final residual = 8.89714e-06, No Iterations 2
smoothSolver:  Solving for k, Initial residual = 0.0351347, Final residual = 0.000613769, No Iterations 2
ExecutionTime = 10.85 s  ClockTime = 10 s

forces forcesFish write:
    Sum of forces
        Total    : (-0.332521 0.038275 -0.000534931)
        Pressure : (-0.386914 0.0381906 -0.000626925)
        Viscous  : (0.0543934 8.44521e-05 9.19942e-05)
    Sum of moments
        Total    : (8.67081e-06 -0.000357668 -0.00296387)
        Pressure : (9.88713e-06 -0.000320508 -0.00315919)
        Viscous  : (-1.21632e-06 -3.71599e-05 0.00019532)
    writing force and moment files.

Time = 11

smoothSolver:  Solving for Ux, Initial residual = 0.00125738, Final residual = 7.96954e-05, No Iterations 2
smoothSolver:  Solving for Uy, Initial residual = 0.047559, Final residual = 0.0037727, No Iterations 2
smoothSolver:  Solving for Uz, Initial residual = 0.0518506, Final residual = 0.00419794, No Iterations 2
GAMG:  Solving for p, Initial residual = 0.0376802, Final residual = 0.00322853, No Iterations 2
time step continuity errors : sum local = 4.60539e-05, global = 4.98741e-06, cumulative = 2.89702e-06
smoothSolver:  Solving for omega, Initial residual = 0.000485197, Final residual = 7.59307e-06, No Iterations 2
smoothSolver:  Solving for k, Initial residual = 0.0307975, Final residual = 0.00055767, No Iterations 2
ExecutionTime = 11.69 s  ClockTime = 11 s

forces forcesFish write:
    Sum of forces
        Total    : (-0.151961 0.0249482 -0.00216516)
        Pressure : (-0.205887 0.0248752 -0.00224457)
        Viscous  : (0.0539259 7.30858e-05 7.94092e-05)
    Sum of moments
        Total    : (3.35684e-05 -0.000124323 -0.00152949)
        Pressure : (3.47497e-05 -9.07527e-05 -0.00173303)
        Viscous  : (-1.18132e-06 -3.35707e-05 0.000203539)
    writing force and moment files.

Time = 12

smoothSolver:  Solving for Ux, Initial residual = 0.0010446, Final residual = 5.88718e-05, No Iterations 2
smoothSolver:  Solving for Uy, Initial residual = 0.0296252, Final residual = 0.0020019, No Iterations 2
smoothSolver:  Solving for Uz, Initial residual = 0.0381744, Final residual = 0.00268474, No Iterations 2
GAMG:  Solving for p, Initial residual = 0.0414536, Final residual = 0.00400623, No Iterations 2
time step continuity errors : sum local = 4.5144e-05, global = 5.15092e-06, cumulative = 8.04793e-06
smoothSolver:  Solving for omega, Initial residual = 0.000405362, Final residual = 6.51264e-06, No Iterations 2
smoothSolver:  Solving for k, Initial residual = 0.027394, Final residual = 0.00051137, No Iterations 2
ExecutionTime = 12.57 s  ClockTime = 12 s

forces forcesFish write:
    Sum of forces
        Total    : (0.0362982 0.00974443 -0.00311296)
        Pressure : (-0.0168205 0.00968999 -0.00318042)
        Viscous  : (0.0531187 5.44368e-05 6.74569e-05)
    Sum of moments
        Total    : (5.59921e-05 6.34673e-05 -8.65702e-05)
        Pressure : (5.71585e-05 9.39239e-05 -0.000288655)
        Viscous  : (-1.16637e-06 -3.04566e-05 0.000202085)
    writing force and moment files.

Time = 13

smoothSolver:  Solving for Ux, Initial residual = 0.000806731, Final residual = 3.65912e-05, No Iterations 2
smoothSolver:  Solving for Uy, Initial residual = 0.0212281, Final residual = 0.00105899, No Iterations 2
smoothSolver:  Solving for Uz, Initial residual = 0.0300892, Final residual = 0.00151755, No Iterations 2
GAMG:  Solving for p, Initial residual = 0.0449518, Final residual = 0.00443754, No Iterations 2
time step continuity errors : sum local = 3.73847e-05, global = 4.82542e-06, cumulative = 1.28734e-05
smoothSolver:  Solving for omega, Initial residual = 0.000342495, Final residual = 5.60916e-06, No Iterations 2
smoothSolver:  Solving for k, Initial residual = 0.0245831, Final residual = 0.000470884, No Iterations 2
ExecutionTime = 13.45 s  ClockTime = 13 s

forces forcesFish write:
    Sum of forces
        Total    : (0.189025 -0.00323505 -0.00303457)
        Pressure : (0.136972 -0.00327326 -0.00309261)
        Viscous  : (0.0520532 3.82092e-05 5.80397e-05)
    Sum of moments
        Total    : (6.89835e-05 0.000144735 0.0011186)
        Pressure : (7.01462e-05 0.000172671 0.000924773)
        Viscous  : (-1.16269e-06 -2.79358e-05 0.000193822)
    writing force and moment files.

Time = 14

smoothSolver:  Solving for Ux, Initial residual = 0.000666515, Final residual = 2.75401e-05, No Iterations 2
smoothSolver:  Solving for Uy, Initial residual = 0.0213878, Final residual = 0.0012693, No Iterations 2
smoothSolver:  Solving for Uz, Initial residual = 0.0322064, Final residual = 0.00183564, No Iterations 2
GAMG:  Solving for p, Initial residual = 0.0478158, Final residual = 0.00421596, No Iterations 2
time step continuity errors : sum local = 2.67881e-05, global = 4.07148e-06, cumulative = 1.69448e-05
smoothSolver:  Solving for omega, Initial residual = 0.000292136, Final residual = 4.85254e-06, No Iterations 2
smoothSolver:  Solving for k, Initial residual = 0.0222834, Final residual = 0.000436274, No Iterations 2
ExecutionTime = 14.33 s  ClockTime = 14 s

forces forcesFish write:
    Sum of forces
        Total    : (0.284112 -0.0110003 -0.00204584)
        Pressure : (0.233247 -0.0110296 -0.00209861)
        Viscous  : (0.050865 2.93288e-05 5.27676e-05)
    Sum of moments
        Total    : (7.05039e-05 0.000117049 0.00204124)
        Pressure : (7.16775e-05 0.000143436 0.0018591)
        Viscous  : (-1.17357e-06 -2.63865e-05 0.000182143)
    writing force and moment files.

Time = 15

smoothSolver:  Solving for Ux, Initial residual = 0.000617634, Final residual = 2.84559e-05, No Iterations 2
smoothSolver:  Solving for Uy, Initial residual = 0.0220148, Final residual = 0.00149166, No Iterations 2
smoothSolver:  Solving for Uz, Initial residual = 0.0346843, Final residual = 0.00233338, No Iterations 2
GAMG:  Solving for p, Initial residual = 0.0519407, Final residual = 0.0035607, No Iterations 2
time step continuity errors : sum local = 1.91408e-05, global = 3.2227e-06, cumulative = 2.01675e-05
smoothSolver:  Solving for omega, Initial residual = 0.000251042, Final residual = 4.21484e-06, No Iterations 2
smoothSolver:  Solving for k, Initial residual = 0.0203186, Final residual = 0.000405334, No Iterations 2
ExecutionTime = 15.19 s  ClockTime = 15 s

forces forcesFish write:
    Sum of forces
        Total    : (0.318435 -0.0125863 -0.000669939)
        Pressure : (0.268741 -0.012616 -0.000721993)
        Viscous  : (0.0496933 2.96412e-05 5.20539e-05)
    Sum of moments
        Total    : (6.35237e-05 2.97137e-05 0.00269147)
        Pressure : (6.47221e-05 5.56391e-05 0.00252072)
        Viscous  : (-1.19839e-06 -2.59254e-05 0.000170754)
    writing force and moment files.

Time = 16

smoothSolver:  Solving for Ux, Initial residual = 0.000576985, Final residual = 2.80177e-05, No Iterations 2
smoothSolver:  Solving for Uy, Initial residual = 0.0208502, Final residual = 0.00144145, No Iterations 2
smoothSolver:  Solving for Uz, Initial residual = 0.0335646, Final residual = 0.00234311, No Iterations 2
GAMG:  Solving for p, Initial residual = 0.0532218, Final residual = 0.0036315, No Iterations 2
time step continuity errors : sum local = 1.98454e-05, global = 2.15694e-06, cumulative = 2.23245e-05
smoothSolver:  Solving for omega, Initial residual = 0.000216982, Final residual = 3.67976e-06, No Iterations 2
smoothSolver:  Solving for k, Initial residual = 0.0186569, Final residual = 0.000378302, No Iterations 2
ExecutionTime = 16.07 s  ClockTime = 16 s

forces forcesFish write:
    Sum of forces
        Total    : (0.307504 -0.00921662 0.000660351)
        Pressure : (0.258858 -0.00925313 0.000605422)
        Viscous  : (0.0486458 3.65158e-05 5.49289e-05)
    Sum of moments
        Total    : (5.20802e-05 -6.53143e-05 0.00313247)
        Pressure : (5.33165e-05 -3.89846e-05 0.00297047)
        Viscous  : (-1.23629e-06 -2.63297e-05 0.000162004)
    writing force and moment files.

Time = 17

smoothSolver:  Solving for Ux, Initial residual = 0.000517184, Final residual = 2.53217e-05, No Iterations 2
smoothSolver:  Solving for Uy, Initial residual = 0.0178587, Final residual = 0.0011836, No Iterations 2
smoothSolver:  Solving for Uz, Initial residual = 0.0291719, Final residual = 0.00198231, No Iterations 2
GAMG:  Solving for p, Initial residual = 0.0469466, Final residual = 0.00334603, No Iterations 2
time step continuity errors : sum local = 2.09712e-05, global = 6.74093e-07, cumulative = 2.29986e-05
smoothSolver:  Solving for omega, Initial residual = 0.000188536, Final residual = 3.22903e-06, No Iterations 2
smoothSolver:  Solving for k, Initial residual = 0.0172022, Final residual = 0.000353879, No Iterations 2
ExecutionTime = 16.98 s  ClockTime = 17 s

forces forcesFish write:
    Sum of forces
        Total    : (0.268041 -0.00204462 0.00180169)
        Pressure : (0.220261 -0.00209036 0.00174215)
        Viscous  : (0.0477801 4.574e-05 5.95468e-05)
    Sum of moments
        Total    : (3.76725e-05 -0.000144204 0.00352436)
        Pressure : (3.89507e-05 -0.000116977 0.00336767)
        Viscous  : (-1.27818e-06 -2.72269e-05 0.000156689)
    writing force and moment files.

Time = 18

smoothSolver:  Solving for Ux, Initial residual = 0.000442809, Final residual = 2.08876e-05, No Iterations 2
smoothSolver:  Solving for Uy, Initial residual = 0.0137041, Final residual = 0.000804029, No Iterations 2
smoothSolver:  Solving for Uz, Initial residual = 0.0229192, Final residual = 0.00140352, No Iterations 2
GAMG:  Solving for p, Initial residual = 0.035953, Final residual = 0.00273916, No Iterations 2
time step continuity errors : sum local = 2.07277e-05, global = -7.55569e-07, cumulative = 2.2243e-05
smoothSolver:  Solving for omega, Initial residual = 0.000164708, Final residual = 2.85326e-06, No Iterations 2
smoothSolver:  Solving for k, Initial residual = 0.0159497, Final residual = 0.000332342, No Iterations 2
ExecutionTime = 17.82 s  ClockTime = 17 s

forces forcesFish write:
    Sum of forces
        Total    : (0.216478 0.00660915 0.00226012)
        Pressure : (0.169367 0.00655769 0.00219587)
        Viscous  : (0.0471109 5.14653e-05 6.42414e-05)
    Sum of moments
        Total    : (2.60557e-05 -0.000150085 0.00385102)
        Pressure : (2.73743e-05 -0.000121796 0.00369655)
        Viscous  : (-1.31865e-06 -2.82887e-05 0.000154476)
    writing force and moment files.

Time = 19

smoothSolver:  Solving for Ux, Initial residual = 0.000375729, Final residual = 1.63323e-05, No Iterations 2
smoothSolver:  Solving for Uy, Initial residual = 0.0102772, Final residual = 0.000487585, No Iterations 2
smoothSolver:  Solving for Uz, Initial residual = 0.0171428, Final residual = 0.000831711, No Iterations 2
GAMG:  Solving for p, Initial residual = 0.0262743, Final residual = 0.00205471, No Iterations 2
time step continuity errors : sum local = 1.845e-05, global = -1.81581e-06, cumulative = 2.04272e-05
smoothSolver:  Solving for omega, Initial residual = 0.000144741, Final residual = 2.54091e-06, No Iterations 2
smoothSolver:  Solving for k, Initial residual = 0.014831, Final residual = 0.000312513, No Iterations 2
ExecutionTime = 18.68 s  ClockTime = 18 s

forces forcesFish write:
    Sum of forces
        Total    : (0.167239 0.014485 0.00189174)
        Pressure : (0.120622 0.0144354 0.00182412)
        Viscous  : (0.0466167 4.95733e-05 6.76189e-05)
    Sum of moments
        Total    : (2.04848e-05 -6.54559e-05 0.00408936)
        Pressure : (2.18398e-05 -3.62196e-05 0.00393491)
        Viscous  : (-1.35499e-06 -2.92362e-05 0.000154449)
    writing force and moment files.

Time = 20

smoothSolver:  Solving for Ux, Initial residual = 0.000324899, Final residual = 1.33213e-05, No Iterations 2
smoothSolver:  Solving for Uy, Initial residual = 0.0085711, Final residual = 0.000398078, No Iterations 2
smoothSolver:  Solving for Uz, Initial residual = 0.0148082, Final residual = 0.000630455, No Iterations 2
GAMG:  Solving for p, Initial residual = 0.0195566, Final residual = 0.00149366, No Iterations 2
time step continuity errors : sum local = 1.51753e-05, global = -2.68259e-06, cumulative = 1.77446e-05
smoothSolver:  Solving for omega, Initial residual = 0.000127943, Final residual = 2.28098e-06, No Iterations 2
smoothSolver:  Solving for k, Initial residual = 0.0138517, Final residual = 0.000294656, No Iterations 2
ExecutionTime = 19.53 s  ClockTime = 19 s

forces forcesFish write:
    Sum of forces
        Total    : (0.129563 0.0199818 0.000851375)
        Pressure : (0.0833083 0.0199428 0.000782093)
        Viscous  : (0.0462543 3.90676e-05 6.92815e-05)
    Sum of moments
        Total    : (2.14621e-05 9.06435e-05 0.00421376)
        Pressure : (2.28602e-05 0.000120552 0.00405803)
        Viscous  : (-1.39809e-06 -2.99084e-05 0.000155728)
    writing force and moment files.

Time = 21

smoothSolver:  Solving for Ux, Initial residual = 0.000296304, Final residual = 1.2533e-05, No Iterations 2
smoothSolver:  Solving for Uy, Initial residual = 0.00754908, Final residual = 0.000401756, No Iterations 2
smoothSolver:  Solving for Uz, Initial residual = 0.0145638, Final residual = 0.000724956, No Iterations 2
GAMG:  Solving for p, Initial residual = 0.0157737, Final residual = 0.00108638, No Iterations 2
time step continuity errors : sum local = 1.18524e-05, global = -3.25393e-06, cumulative = 1.44907e-05
smoothSolver:  Solving for omega, Initial residual = 0.000113637, Final residual = 2.06112e-06, No Iterations 2
smoothSolver:  Solving for k, Initial residual = 0.0129671, Final residual = 0.000277942, No Iterations 2
ExecutionTime = 20.41 s  ClockTime = 20 s

forces forcesFish write:
    Sum of forces
        Total    : (0.10722 0.0223877 -0.000503647)
        Pressure : (0.061248 0.0223658 -0.000572923)
        Viscous  : (0.0459716 2.19318e-05 6.92754e-05)
    Sum of moments
        Total    : (2.72305e-05 0.000272993 0.00420802)
        Pressure : (2.8684e-05 0.000303282 0.00405035)
        Viscous  : (-1.45343e-06 -3.0289e-05 0.000157664)
    writing force and moment files.

Time = 22

smoothSolver:  Solving for Ux, Initial residual = 0.000286953, Final residual = 1.24728e-05, No Iterations 2
smoothSolver:  Solving for Uy, Initial residual = 0.00653805, Final residual = 0.000375761, No Iterations 2
smoothSolver:  Solving for Uz, Initial residual = 0.0142763, Final residual = 0.000799978, No Iterations 2
GAMG:  Solving for p, Initial residual = 0.0147025, Final residual = 0.000935597, No Iterations 2
time step continuity errors : sum local = 1.04538e-05, global = -3.60415e-06, cumulative = 1.08865e-05
smoothSolver:  Solving for omega, Initial residual = 0.000101266, Final residual = 1.86975e-06, No Iterations 2
smoothSolver:  Solving for k, Initial residual = 0.0121699, Final residual = 0.000262327, No Iterations 2
ExecutionTime = 21.25 s  ClockTime = 21 s

forces forcesFish write:
    Sum of forces
        Total    : (0.0990734 0.0219453 -0.00179031)
        Pressure : (0.0533525 0.0219433 -0.00185834)
        Viscous  : (0.0457209 2.0159e-06 6.80365e-05)
    Sum of moments
        Total    : (3.4949e-05 0.000433377 0.00408476)
        Pressure : (3.6471e-05 0.000463826 0.00392491)
        Viscous  : (-1.52196e-06 -3.04488e-05 0.000159851)
    writing force and moment files.

Time = 23

smoothSolver:  Solving for Ux, Initial residual = 0.000284047, Final residual = 1.21801e-05, No Iterations 2
smoothSolver:  Solving for Uy, Initial residual = 0.00547814, Final residual = 0.000313373, No Iterations 2
smoothSolver:  Solving for Uz, Initial residual = 0.0132832, Final residual = 0.000759218, No Iterations 2
GAMG:  Solving for p, Initial residual = 0.0151425, Final residual = 0.000919015, No Iterations 2
time step continuity errors : sum local = 1.01417e-05, global = -3.63038e-06, cumulative = 7.25615e-06
smoothSolver:  Solving for omega, Initial residual = 9.04233e-05, Final residual = 1.69793e-06, No Iterations 2
smoothSolver:  Solving for k, Initial residual = 0.0114434, Final residual = 0.00024757, No Iterations 2
ExecutionTime = 22.31 s  ClockTime = 22 s

forces forcesFish write:
    Sum of forces
        Total    : (0.100752 0.0193143 -0.00286675)
        Pressure : (0.0552847 0.0193315 -0.00293302)
        Viscous  : (0.0454672 -1.72096e-05 6.62699e-05)
    Sum of moments
        Total    : (4.31759e-05 0.000553901 0.00385459)
        Pressure : (4.47774e-05 0.000584352 0.00369273)
        Viscous  : (-1.60142e-06 -3.04507e-05 0.000161852)
    writing force and moment files.

Time = 24

smoothSolver:  Solving for Ux, Initial residual = 0.000276078, Final residual = 1.14186e-05, No Iterations 2
smoothSolver:  Solving for Uy, Initial residual = 0.00455422, Final residual = 0.000236714, No Iterations 2
smoothSolver:  Solving for Uz, Initial residual = 0.0117969, Final residual = 0.000627396, No Iterations 2
GAMG:  Solving for p, Initial residual = 0.0152019, Final residual = 0.000958933, No Iterations 2
time step continuity errors : sum local = 1.01852e-05, global = -3.32539e-06, cumulative = 3.93076e-06
smoothSolver:  Solving for omega, Initial residual = 8.08378e-05, Final residual = 1.53902e-06, No Iterations 2
smoothSolver:  Solving for k, Initial residual = 0.0107657, Final residual = 0.000233323, No Iterations 2
ExecutionTime = 23.14 s  ClockTime = 23 s

forces forcesFish write:
    Sum of forces
        Total    : (0.108242 0.0153102 -0.00353003)
        Pressure : (0.0630518 0.0153429 -0.00359451)
        Viscous  : (0.0451906 -3.27641e-05 6.44862e-05)
    Sum of moments
        Total    : (4.99147e-05 0.000608377 0.00353824)
        Pressure : (5.15939e-05 0.000638785 0.00337458)
        Viscous  : (-1.67921e-06 -3.04085e-05 0.000163664)
    writing force and moment files.

Time = 25

smoothSolver:  Solving for Ux, Initial residual = 0.000260701, Final residual = 1.01992e-05, No Iterations 2
smoothSolver:  Solving for Uy, Initial residual = 0.00384997, Final residual = 0.00017749, No Iterations 2
smoothSolver:  Solving for Uz, Initial residual = 0.0100393, Final residual = 0.000465723, No Iterations 2
GAMG:  Solving for p, Initial residual = 0.0146305, Final residual = 0.000961665, No Iterations 2
time step continuity errors : sum local = 9.66722e-06, global = -2.81139e-06, cumulative = 1.11937e-06
smoothSolver:  Solving for omega, Initial residual = 7.23588e-05, Final residual = 1.39275e-06, No Iterations 2
smoothSolver:  Solving for k, Initial residual = 0.0101383, Final residual = 0.00021973, No Iterations 2
ExecutionTime = 23.98 s  ClockTime = 24 s

forces forcesFish write:
    Sum of forces
        Total    : (0.117678 0.0110043 -0.00364191)
        Pressure : (0.0727914 0.0110476 -0.00370515)
        Viscous  : (0.0448862 -4.32992e-05 6.3236e-05)
    Sum of moments
        Total    : (5.32714e-05 0.000582266 0.00319595)
        Pressure : (5.50186e-05 0.000612706 0.00303076)
        Viscous  : (-1.7472e-06 -3.04402e-05 0.000165188)
    writing force and moment files.

Time = 26

smoothSolver:  Solving for Ux, Initial residual = 0.000244777, Final residual = 8.87242e-06, No Iterations 2
smoothSolver:  Solving for Uy, Initial residual = 0.00346397, Final residual = 0.000156378, No Iterations 2
smoothSolver:  Solving for Uz, Initial residual = 0.00883309, Final residual = 0.000375878, No Iterations 2
GAMG:  Solving for p, Initial residual = 0.0135553, Final residual = 0.000868292, No Iterations 2
time step continuity errors : sum local = 8.22696e-06, global = -2.17782e-06, cumulative = -1.05845e-06
smoothSolver:  Solving for omega, Initial residual = 6.48567e-05, Final residual = 1.25897e-06, No Iterations 2
smoothSolver:  Solving for k, Initial residual = 0.00954986, Final residual = 0.000206641, No Iterations 2
ExecutionTime = 24.84 s  ClockTime = 24 s

forces forcesFish write:
    Sum of forces
        Total    : (0.126036 0.00733139 -0.00324674)
        Pressure : (0.081474 0.00738048 -0.0033095)
        Viscous  : (0.0445617 -4.90865e-05 6.27683e-05)
    Sum of moments
        Total    : (5.26981e-05 0.000487401 0.00289567)
        Pressure : (5.4495e-05 0.000517974 0.00272934)
        Viscous  : (-1.79682e-06 -3.05731e-05 0.000166331)
    writing force and moment files.

Time = 27

smoothSolver:  Solving for Ux, Initial residual = 0.000232589, Final residual = 7.88047e-06, No Iterations 2
smoothSolver:  Solving for Uy, Initial residual = 0.00324326, Final residual = 0.000153697, No Iterations 2
smoothSolver:  Solving for Uz, Initial residual = 0.00823643, Final residual = 0.000367059, No Iterations 2
GAMG:  Solving for p, Initial residual = 0.0122572, Final residual = 0.00071146, No Iterations 2
time step continuity errors : sum local = 6.40918e-06, global = -1.51499e-06, cumulative = -2.57344e-06
smoothSolver:  Solving for omega, Initial residual = 5.81862e-05, Final residual = 1.1375e-06, No Iterations 2
smoothSolver:  Solving for k, Initial residual = 0.00898973, Final residual = 0.00019391, No Iterations 2
ExecutionTime = 25.72 s  ClockTime = 25 s

forces forcesFish write:
    Sum of forces
        Total    : (0.131578 0.00487366 -0.00253308)
        Pressure : (0.0873482 0.00492495 -0.00259595)
        Viscous  : (0.0442296 -5.12896e-05 6.28701e-05)
    Sum of moments
        Total    : (4.89611e-05 0.000355954 0.00269048)
        Pressure : (5.07875e-05 0.00038671 0.00252331)
        Viscous  : (-1.82644e-06 -3.07552e-05 0.000167173)
    writing force and moment files.

Time = 28

smoothSolver:  Solving for Ux, Initial residual = 0.000222121, Final residual = 7.27223e-06, No Iterations 2
smoothSolver:  Solving for Uy, Initial residual = 0.00305995, Final residual = 0.000148637, No Iterations 2
smoothSolver:  Solving for Uz, Initial residual = 0.00782882, Final residual = 0.000368874, No Iterations 2
GAMG:  Solving for p, Initial residual = 0.0111854, Final residual = 0.000616482, No Iterations 2
time step continuity errors : sum local = 5.37535e-06, global = -7.95049e-07, cumulative = -3.36849e-06
smoothSolver:  Solving for omega, Initial residual = 5.22207e-05, Final residual = 1.02765e-06, No Iterations 2
smoothSolver:  Solving for k, Initial residual = 0.00846019, Final residual = 0.000181653, No Iterations 2
ExecutionTime = 26.58 s  ClockTime = 26 s

forces forcesFish write:
    Sum of forces
        Total    : (0.133862 0.00375747 -0.00175056)
        Pressure : (0.0899581 0.00380916 -0.00181393)
        Viscous  : (0.0439042 -5.16899e-05 6.33766e-05)
    Sum of moments
        Total    : (4.36981e-05 0.000227016 0.00259955)
        Pressure : (4.55378e-05 0.000257957 0.00243179)
        Viscous  : (-1.83974e-06 -3.09414e-05 0.000167758)
    writing force and moment files.

Time = 29

smoothSolver:  Solving for Ux, Initial residual = 0.000212059, Final residual = 6.84533e-06, No Iterations 2
smoothSolver:  Solving for Uy, Initial residual = 0.00283395, Final residual = 0.000134432, No Iterations 2
smoothSolver:  Solving for Uz, Initial residual = 0.00732549, Final residual = 0.000344021, No Iterations 2
GAMG:  Solving for p, Initial residual = 0.0104894, Final residual = 0.000671828, No Iterations 2
time step continuity errors : sum local = 5.78258e-06, global = -1.58102e-08, cumulative = -3.3843e-06
smoothSolver:  Solving for omega, Initial residual = 4.68525e-05, Final residual = 9.27751e-07, No Iterations 2
smoothSolver:  Solving for k, Initial residual = 0.00795715, Final residual = 0.000169835, No Iterations 2
ExecutionTime = 27.45 s  ClockTime = 27 s

forces forcesFish write:
    Sum of forces
        Total    : (0.13359 0.00365724 -0.00103196)
        Pressure : (0.0899939 0.00370917 -0.00109593)
        Viscous  : (0.043596 -5.19378e-05 6.39731e-05)
    Sum of moments
        Total    : (3.79746e-05 0.00011855 0.00259396)
        Pressure : (3.98144e-05 0.000149664 0.0024258)
        Viscous  : (-1.83985e-06 -3.11136e-05 0.000168166)
    writing force and moment files.

Time = 30

smoothSolver:  Solving for Ux, Initial residual = 0.000200335, Final residual = 6.46217e-06, No Iterations 2
smoothSolver:  Solving for Uy, Initial residual = 0.00254991, Final residual = 0.000113566, No Iterations 2
smoothSolver:  Solving for Uz, Initial residual = 0.00663754, Final residual = 0.000294335, No Iterations 2
GAMG:  Solving for p, Initial residual = 0.00994936, Final residual = 0.000699368, No Iterations 2
time step continuity errors : sum local = 6.02906e-06, global = 6.55287e-07, cumulative = -2.72902e-06
smoothSolver:  Solving for omega, Initial residual = 4.20298e-05, Final residual = 8.38521e-07, No Iterations 2
smoothSolver:  Solving for k, Initial residual = 0.00747452, Final residual = 0.000158365, No Iterations 2
ExecutionTime = 28.54 s  ClockTime = 28 s

forces forcesFish write:
    Sum of forces
        Total    : (0.131718 0.00419833 -0.000408782)
        Pressure : (0.0884062 0.00425141 -0.000473281)
        Viscous  : (0.0433114 -5.30782e-05 6.44988e-05)
    Sum of moments
        Total    : (3.2014e-05 3.41727e-05 0.00263987)
        Pressure : (3.38476e-05 6.53992e-05 0.00247138)
        Viscous  : (-1.83369e-06 -3.12265e-05 0.000168494)
    writing force and moment files.

Time = 31

smoothSolver:  Solving for Ux, Initial residual = 0.000186608, Final residual = 6.06772e-06, No Iterations 2
smoothSolver:  Solving for Uy, Initial residual = 0.00227458, Final residual = 9.29587e-05, No Iterations 2
smoothSolver:  Solving for Uz, Initial residual = 0.00589325, Final residual = 0.00023449, No Iterations 2
GAMG:  Solving for p, Initial residual = 0.00932425, Final residual = 0.000699056, No Iterations 2
time step continuity errors : sum local = 6.09567e-06, global = 1.09963e-06, cumulative = -1.62939e-06
smoothSolver:  Solving for omega, Initial residual = 3.77077e-05, Final residual = 7.59347e-07, No Iterations 2
smoothSolver:  Solving for k, Initial residual = 0.00701288, Final residual = 0.000147282, No Iterations 2
ExecutionTime = 29.62 s  ClockTime = 29 s

forces forcesFish write:
    Sum of forces
        Total    : (0.129035 0.00505262 2.67451e-05)
        Pressure : (0.0859822 0.00510817 -3.78858e-05)
        Viscous  : (0.0430527 -5.55516e-05 6.4631e-05)
    Sum of moments
        Total    : (2.66896e-05 -1.2882e-05 0.00271204)
        Pressure : (2.85148e-05 1.83662e-05 0.00254322)
        Viscous  : (-1.8252e-06 -3.12482e-05 0.000168823)
    writing force and moment files.

Time = 32

smoothSolver:  Solving for Ux, Initial residual = 0.000170941, Final residual = 5.64463e-06, No Iterations 2
smoothSolver:  Solving for Uy, Initial residual = 0.00204563, Final residual = 7.80121e-05, No Iterations 2
smoothSolver:  Solving for Uz, Initial residual = 0.00521724, Final residual = 0.000182894, No Iterations 2
GAMG:  Solving for p, Initial residual = 0.00850136, Final residual = 0.000656424, No Iterations 2
time step continuity errors : sum local = 5.82388e-06, global = 1.35399e-06, cumulative = -2.75392e-07
smoothSolver:  Solving for omega, Initial residual = 3.38207e-05, Final residual = 6.8842e-07, No Iterations 2
smoothSolver:  Solving for k, Initial residual = 0.00657144, Final residual = 0.000136591, No Iterations 2
ExecutionTime = 30.66 s  ClockTime = 30 s

forces forcesFish write:
    Sum of forces
        Total    : (0.126221 0.00588181 0.000199651)
        Pressure : (0.0834035 0.00594097 0.000135332)
        Viscous  : (0.0428175 -5.91614e-05 6.43193e-05)
    Sum of moments
        Total    : (2.29768e-05 -1.37426e-05 0.0027809)
        Pressure : (2.47956e-05 1.7422e-05 0.00261168)
        Viscous  : (-1.81876e-06 -3.11646e-05 0.000169219)
    writing force and moment files.

Time = 33

smoothSolver:  Solving for Ux, Initial residual = 0.000153855, Final residual = 5.19832e-06, No Iterations 2
smoothSolver:  Solving for Uy, Initial residual = 0.00183898, Final residual = 6.83634e-05, No Iterations 2
smoothSolver:  Solving for Uz, Initial residual = 0.00465332, Final residual = 0.000149384, No Iterations 2
GAMG:  Solving for p, Initial residual = 0.00762933, Final residual = 0.000572296, No Iterations 2
time step continuity errors : sum local = 5.17154e-06, global = 1.41965e-06, cumulative = 1.14426e-06
smoothSolver:  Solving for omega, Initial residual = 3.03115e-05, Final residual = 6.23982e-07, No Iterations 2
smoothSolver:  Solving for k, Initial residual = 0.00614845, Final residual = 0.000126271, No Iterations 2
ExecutionTime = 31.61 s  ClockTime = 31 s

forces forcesFish write:
    Sum of forces
        Total    : (0.123755 0.00641437 0.00010349)
        Pressure : (0.0811538 0.00647752 3.98845e-05)
        Viscous  : (0.0426013 -6.31484e-05 6.36051e-05)
    Sum of moments
        Total    : (2.13831e-05 2.86484e-05 0.00281864)
        Pressure : (2.32009e-05 5.96475e-05 0.00264888)
        Viscous  : (-1.81781e-06 -3.09992e-05 0.00016976)
    writing force and moment files.

Time = 34

smoothSolver:  Solving for Ux, Initial residual = 0.00013587, Final residual = 4.77602e-06, No Iterations 2
smoothSolver:  Solving for Uy, Initial residual = 0.00164713, Final residual = 6.18766e-05, No Iterations 2
smoothSolver:  Solving for Uz, Initial residual = 0.00423723, Final residual = 0.00013858, No Iterations 2
GAMG:  Solving for p, Initial residual = 0.00685733, Final residual = 0.000464284, No Iterations 2
time step continuity errors : sum local = 4.26126e-06, global = 1.32818e-06, cumulative = 2.47244e-06
smoothSolver:  Solving for omega, Initial residual = 2.71245e-05, Final residual = 5.64939e-07, No Iterations 2
smoothSolver:  Solving for k, Initial residual = 0.00574019, Final residual = 0.000116265, No Iterations 2
ExecutionTime = 32.61 s  ClockTime = 32 s

forces forcesFish write:
    Sum of forces
        Total    : (0.121873 0.00650718 -0.000203851)
        Pressure : (0.0794743 0.00657385 -0.000266438)
        Viscous  : (0.0423991 -6.66699e-05 6.2587e-05)
    Sum of moments
        Total    : (2.18359e-05 0.000101108 0.00280769)
        Pressure : (2.36597e-05 0.000131878 0.00263717)
        Viscous  : (-1.82385e-06 -3.07698e-05 0.000170517)
    writing force and moment files.

Time = 35

smoothSolver:  Solving for Ux, Initial residual = 0.000119506, Final residual = 4.3881e-06, No Iterations 2
smoothSolver:  Solving for Uy, Initial residual = 0.00147847, Final residual = 5.69955e-05, No Iterations 2
smoothSolver:  Solving for Uz, Initial residual = 0.00389168, Final residual = 0.000135943, No Iterations 2
GAMG:  Solving for p, Initial residual = 0.00621676, Final residual = 0.000366693, No Iterations 2
time step continuity errors : sum local = 3.40124e-06, global = 1.18287e-06, cumulative = 3.65531e-06
smoothSolver:  Solving for omega, Initial residual = 2.42181e-05, Final residual = 5.10584e-07, No Iterations 2
smoothSolver:  Solving for k, Initial residual = 0.0053481, Final residual = 0.000106619, No Iterations 2
ExecutionTime = 33.47 s  ClockTime = 33 s

forces forcesFish write:
    Sum of forces
        Total    : (0.120605 0.00615859 -0.000623072)
        Pressure : (0.0783996 0.00622744 -0.000684527)
        Viscous  : (0.0422059 -6.88513e-05 6.14541e-05)
    Sum of moments
        Total    : (2.37805e-05 0.000184627 0.00274481)
        Pressure : (2.56166e-05 0.000215148 0.00257326)
        Viscous  : (-1.83607e-06 -3.05209e-05 0.000171558)
    writing force and moment files.

Time = 36

smoothSolver:  Solving for Ux, Initial residual = 0.00010891, Final residual = 4.07053e-06, No Iterations 2
smoothSolver:  Solving for Uy, Initial residual = 0.00133386, Final residual = 5.25925e-05, No Iterations 2
smoothSolver:  Solving for Uz, Initial residual = 0.00355414, Final residual = 0.000129455, No Iterations 2
GAMG:  Solving for p, Initial residual = 0.00567884, Final residual = 0.000315827, No Iterations 2
time step continuity errors : sum local = 2.94435e-06, global = 1.06685e-06, cumulative = 4.72216e-06
smoothSolver:  Solving for omega, Initial residual = 2.15662e-05, Final residual = 4.60392e-07, No Iterations 2
smoothSolver:  Solving for k, Initial residual = 0.004971, Final residual = 9.73344e-05, No Iterations 2
ExecutionTime = 34.35 s  ClockTime = 34 s

forces forcesFish write:
    Sum of forces
        Total    : (0.119841 0.00547489 -0.00104721)
        Pressure : (0.0778233 0.00554395 -0.00110755)
        Viscous  : (0.0420178 -6.90617e-05 6.03385e-05)
    Sum of moments
        Total    : (2.64361e-05 0.000260667 0.00263944)
        Pressure : (2.82895e-05 0.000290948 0.00246653)
        Viscous  : (-1.8534e-06 -3.02807e-05 0.000172904)
    writing force and moment files.

Time = 37

smoothSolver:  Solving for Ux, Initial residual = 0.000102258, Final residual = 3.8277e-06, No Iterations 2
smoothSolver:  Solving for Uy, Initial residual = 0.00121638, Final residual = 4.88624e-05, No Iterations 2
smoothSolver:  Solving for Uz, Initial residual = 0.00325023, Final residual = 0.000118759, No Iterations 2
GAMG:  Solving for p, Initial residual = 0.00524204, Final residual = 0.000311925, No Iterations 2
time step continuity errors : sum local = 2.90949e-06, global = 9.28774e-07, cumulative = 5.65093e-06
smoothSolver:  Solving for omega, Initial residual = 1.91484e-05, Final residual = 4.13936e-07, No Iterations 2
smoothSolver:  Solving for k, Initial residual = 0.00460696, Final residual = 8.83984e-05, No Iterations 2
ExecutionTime = 35.23 s  ClockTime = 35 s

forces forcesFish write:
    Sum of forces
        Total    : (0.119402 0.00460185 -0.00139931)
        Pressure : (0.0775691 0.00466888 -0.00145866)
        Viscous  : (0.0418327 -6.70288e-05 5.93479e-05)
    Sum of moments
        Total    : (2.91408e-05 0.000317091 0.00250659)
        Pressure : (3.10142e-05 0.000347159 0.00233204)
        Viscous  : (-1.87336e-06 -3.00676e-05 0.000174546)
    writing force and moment files.

Time = 38

smoothSolver:  Solving for Ux, Initial residual = 9.61331e-05, Final residual = 3.59425e-06, No Iterations 2
smoothSolver:  Solving for Uy, Initial residual = 0.00113648, Final residual = 4.61482e-05, No Iterations 2
smoothSolver:  Solving for Uz, Initial residual = 0.00303909, Final residual = 0.000108743, No Iterations 2
GAMG:  Solving for p, Initial residual = 0.00489389, Final residual = 0.000319821, No Iterations 2
time step continuity errors : sum local = 2.97618e-06, global = 7.54222e-07, cumulative = 6.40515e-06
smoothSolver:  Solving for omega, Initial residual = 1.69453e-05, Final residual = 3.71045e-07, No Iterations 2
smoothSolver:  Solving for k, Initial residual = 0.00425444, Final residual = 7.98135e-05, No Iterations 2
ExecutionTime = 36.06 s  ClockTime = 36 s

forces forcesFish write:
    Sum of forces
        Total    : (0.119121 0.00368606 -0.00163243)
        Pressure : (0.0774712 0.00374891 -0.00169099)
        Viscous  : (0.0416498 -6.28413e-05 5.85559e-05)
    Sum of moments
        Total    : (3.13807e-05 0.000347469 0.00236308)
        Pressure : (3.32739e-05 0.000377357 0.00218663)
        Viscous  : (-1.89321e-06 -2.98878e-05 0.000176444)
    writing force and moment files.

Time = 39

smoothSolver:  Solving for Ux, Initial residual = 8.89189e-05, Final residual = 3.33508e-06, No Iterations 2
smoothSolver:  Solving for Uy, Initial residual = 0.00109358, Final residual = 4.44952e-05, No Iterations 2
smoothSolver:  Solving for Uz, Initial residual = 0.0028877, Final residual = 0.000102819, No Iterations 2
GAMG:  Solving for p, Initial residual = 0.00463442, Final residual = 0.000313958, No Iterations 2
time step continuity errors : sum local = 2.91197e-06, global = 5.79193e-07, cumulative = 6.98435e-06
smoothSolver:  Solving for omega, Initial residual = 1.49452e-05, Final residual = 3.31743e-07, No Iterations 2
smoothSolver:  Solving for k, Initial residual = 0.00391402, Final residual = 7.16237e-05, No Iterations 2
ExecutionTime = 36.92 s  ClockTime = 36 s

forces forcesFish write:
    Sum of forces
        Total    : (0.118883 0.0028558 -0.00172588)
        Pressure : (0.0774136 0.0029127 -0.00178384)
        Viscous  : (0.0414697 -5.68999e-05 5.79674e-05)
    Sum of moments
        Total    : (3.27837e-05 0.00035049 0.00222554)
        Pressure : (3.46946e-05 0.000380226 0.002047)
        Viscous  : (-1.91088e-06 -2.97357e-05 0.000178536)
    writing force and moment files.

Time = 40

smoothSolver:  Solving for Ux, Initial residual = 8.15005e-05, Final residual = 3.06306e-06, No Iterations 2
smoothSolver:  Solving for Uy, Initial residual = 0.00106453, Final residual = 4.33823e-05, No Iterations 2
smoothSolver:  Solving for Uz, Initial residual = 0.00274819, Final residual = 9.98617e-05, No Iterations 2
GAMG:  Solving for p, Initial residual = 0.00440024, Final residual = 0.000293061, No Iterations 2
time step continuity errors : sum local = 2.71093e-06, global = 4.1186e-07, cumulative = 7.39621e-06
smoothSolver:  Solving for omega, Initial residual = 1.31358e-05, Final residual = 2.96147e-07, No Iterations 2
smoothSolver:  Solving for k, Initial residual = 0.00358469, Final residual = 6.38441e-05, No Iterations 2
ExecutionTime = 37.79 s  ClockTime = 37 s

forces forcesFish write:
    Sum of forces
        Total    : (0.118628 0.00220147 -0.00168836)
        Pressure : (0.0773348 0.00225121 -0.00174592)
        Viscous  : (0.0412933 -4.97474e-05 5.75591e-05)
    Sum of moments
        Total    : (3.31951e-05 0.000330415 0.00210768)
        Pressure : (3.51198e-05 0.000360019 0.00192693)
        Viscous  : (-1.92475e-06 -2.9604e-05 0.000180749)
    writing force and moment files.

Time = 41

smoothSolver:  Solving for Ux, Initial residual = 7.6158e-05, Final residual = 2.83517e-06, No Iterations 2
smoothSolver:  Solving for Uy, Initial residual = 0.00104, Final residual = 4.20929e-05, No Iterations 2
smoothSolver:  Solving for Uz, Initial residual = 0.0026241, Final residual = 9.69178e-05, No Iterations 2
GAMG:  Solving for p, Initial residual = 0.00416036, Final residual = 0.000264567, No Iterations 2
time step continuity errors : sum local = 2.44522e-06, global = 2.54164e-07, cumulative = 7.65037e-06
smoothSolver:  Solving for omega, Initial residual = 1.15091e-05, Final residual = 2.64254e-07, No Iterations 2
smoothSolver:  Solving for k, Initial residual = 0.00326551, Final residual = 5.64911e-05, No Iterations 2
ExecutionTime = 38.64 s  ClockTime = 38 s

forces forcesFish write:
    Sum of forces
        Total    : (0.118334 0.00176034 -0.00155925)
        Pressure : (0.0772122 0.00180225 -0.00161651)
        Viscous  : (0.0411218 -4.19126e-05 5.72604e-05)
    Sum of moments
        Total    : (3.27476e-05 0.000296743 0.00201745)
        Pressure : (3.46818e-05 0.000326222 0.00183444)
        Viscous  : (-1.93428e-06 -2.94791e-05 0.000183017)
    writing force and moment files.

Time = 42

smoothSolver:  Solving for Ux, Initial residual = 7.44738e-05, Final residual = 2.674e-06, No Iterations 2
smoothSolver:  Solving for Uy, Initial residual = 0.0010092, Final residual = 4.01731e-05, No Iterations 2
smoothSolver:  Solving for Uz, Initial residual = 0.00249745, Final residual = 9.20392e-05, No Iterations 2
GAMG:  Solving for p, Initial residual = 0.00390901, Final residual = 0.00023149, No Iterations 2
time step continuity errors : sum local = 2.14224e-06, global = 2.40961e-08, cumulative = 7.67447e-06
smoothSolver:  Solving for omega, Initial residual = 1.00544e-05, Final residual = 2.35851e-07, No Iterations 2
smoothSolver:  Solving for k, Initial residual = 0.00295798, Final residual = 4.96203e-05, No Iterations 2
ExecutionTime = 39.49 s  ClockTime = 39 s

forces forcesFish write:
    Sum of forces
        Total    : (0.117997 0.00150123 -0.00139232)
        Pressure : (0.0770406 0.00153513 -0.00144931)
        Viscous  : (0.040956 -3.38911e-05 5.69904e-05)
    Sum of moments
        Total    : (3.17706e-05 0.00026026 0.00195262)
        Pressure : (3.371e-05 0.000289607 0.00176734)
        Viscous  : (-1.93942e-06 -2.93472e-05 0.000185278)
    writing force and moment files.

Time = 43

smoothSolver:  Solving for Ux, Initial residual = 7.47691e-05, Final residual = 2.55841e-06, No Iterations 2
smoothSolver:  Solving for Uy, Initial residual = 0.000966849, Final residual = 3.77756e-05, No Iterations 2
smoothSolver:  Solving for Uz, Initial residual = 0.00233637, Final residual = 8.43709e-05, No Iterations 2
GAMG:  Solving for p, Initial residual = 0.00364379, Final residual = 0.000201352, No Iterations 2
time step continuity errors : sum local = 1.86957e-06, global = -1.8035e-07, cumulative = 7.49412e-06
smoothSolver:  Solving for omega, Initial residual = 8.76412e-06, Final residual = 2.10812e-07, No Iterations 2
smoothSolver:  Solving for k, Initial residual = 0.0026619, Final residual = 4.32498e-05, No Iterations 2
ExecutionTime = 40.37 s  ClockTime = 40 s

forces forcesFish write:
    Sum of forces
        Total    : (0.117627 0.00135336 -0.00122901)
        Pressure : (0.0768301 0.00137937 -0.0012857)
        Viscous  : (0.0407966 -2.60165e-05 5.66813e-05)
    Sum of moments
        Total    : (3.05676e-05 0.000228301 0.00190367)
        Pressure : (3.25082e-05 0.000257503 0.00171619)
        Viscous  : (-1.94064e-06 -2.92027e-05 0.000187483)
    writing force and moment files.

Time = 44

smoothSolver:  Solving for Ux, Initial residual = 7.48618e-05, Final residual = 2.45626e-06, No Iterations 2
smoothSolver:  Solving for Uy, Initial residual = 0.000922053, Final residual = 3.53786e-05, No Iterations 2
smoothSolver:  Solving for Uz, Initial residual = 0.00214941, Final residual = 7.51244e-05, No Iterations 2
GAMG:  Solving for p, Initial residual = 0.00337741, Final residual = 0.000170347, No Iterations 2
time step continuity errors : sum local = 1.58928e-06, global = -3.19631e-07, cumulative = 7.17448e-06
smoothSolver:  Solving for omega, Initial residual = 7.6271e-06, Final residual = 1.88925e-07, No Iterations 2
smoothSolver:  Solving for k, Initial residual = 0.00237874, Final residual = 3.74147e-05, No Iterations 2
ExecutionTime = 41.22 s  ClockTime = 41 s

forces forcesFish write:
    Sum of forces
        Total    : (0.117247 0.00123955 -0.00108932)
        Pressure : (0.0766034 0.001258 -0.00114562)
        Viscous  : (0.0406435 -1.84541e-05 5.63087e-05)
    Sum of moments
        Total    : (2.93125e-05 0.000203857 0.00185852)
        Pressure : (3.12513e-05 0.000232892 0.00166891)
        Viscous  : (-1.93884e-06 -2.90347e-05 0.000189605)
    writing force and moment files.

Time = 45

smoothSolver:  Solving for Ux, Initial residual = 7.37065e-05, Final residual = 2.34804e-06, No Iterations 2
smoothSolver:  Solving for Uy, Initial residual = 0.000881253, Final residual = 3.321e-05, No Iterations 2
smoothSolver:  Solving for Uz, Initial residual = 0.00197213, Final residual = 6.60254e-05, No Iterations 2
GAMG:  Solving for p, Initial residual = 0.00312923, Final residual = 0.0001511, No Iterations 2
time step continuity errors : sum local = 1.41749e-06, global = -4.18358e-07, cumulative = 6.75613e-06
smoothSolver:  Solving for omega, Initial residual = 6.63353e-06, Final residual = 1.69904e-07, No Iterations 2
smoothSolver:  Solving for k, Initial residual = 0.0021098, Final residual = 3.21327e-05, No Iterations 2
ExecutionTime = 42.1 s  ClockTime = 42 s

forces forcesFish write:
    Sum of forces
        Total    : (0.116882 0.00110045 -0.000983654)
        Pressure : (0.076385 0.00111164 -0.0010395)
        Viscous  : (0.040497 -1.11936e-05 5.58437e-05)
    Sum of moments
        Total    : (2.81286e-05 0.000188224 0.00180753)
        Pressure : (3.00635e-05 0.000217062 0.00161589)
        Viscous  : (-1.93495e-06 -2.88381e-05 0.000191641)
    writing force and moment files.

Time = 46

smoothSolver:  Solving for Ux, Initial residual = 7.11072e-05, Final residual = 2.22801e-06, No Iterations 2
smoothSolver:  Solving for Uy, Initial residual = 0.000845384, Final residual = 3.13438e-05, No Iterations 2
smoothSolver:  Solving for Uz, Initial residual = 0.00182262, Final residual = 5.83814e-05, No Iterations 2
GAMG:  Solving for p, Initial residual = 0.00290938, Final residual = 0.000154354, No Iterations 2
time step continuity errors : sum local = 1.45619e-06, global = -4.15209e-07, cumulative = 6.34092e-06
smoothSolver:  Solving for omega, Initial residual = 5.7704e-06, Final residual = 1.53384e-07, No Iterations 2
smoothSolver:  Solving for k, Initial residual = 0.00185634, Final residual = 2.74071e-05, No Iterations 2
ExecutionTime = 42.96 s  ClockTime = 43 s

forces forcesFish write:
    Sum of forces
        Total    : (0.116551 0.000890034 -0.000917277)
        Pressure : (0.0761942 0.000894178 -0.000972555)
        Viscous  : (0.0403567 -4.14431e-06 5.52781e-05)
    Sum of moments
        Total    : (2.71152e-05 0.000181795 0.00174257)
        Pressure : (2.90449e-05 0.000210407 0.00154896)
        Viscous  : (-1.9297e-06 -2.86124e-05 0.000193607)
    writing force and moment files.

Time = 47

smoothSolver:  Solving for Ux, Initial residual = 6.63581e-05, Final residual = 2.08283e-06, No Iterations 2
smoothSolver:  Solving for Uy, Initial residual = 0.000818325, Final residual = 2.99494e-05, No Iterations 2
smoothSolver:  Solving for Uz, Initial residual = 0.00170484, Final residual = 5.3025e-05, No Iterations 2
GAMG:  Solving for p, Initial residual = 0.00271414, Final residual = 0.000156821, No Iterations 2
time step continuity errors : sum local = 1.48688e-06, global = -2.88817e-07, cumulative = 6.0521e-06
smoothSolver:  Solving for omega, Initial residual = 5.02427e-06, Final residual = 1.38912e-07, No Iterations 2
smoothSolver:  Solving for k, Initial residual = 0.00161995, Final residual = 2.32327e-05, No Iterations 2
ExecutionTime = 43.84 s  ClockTime = 43 s

forces forcesFish write:
    Sum of forces
        Total    : (0.116255 0.000598946 -0.00089967)
        Pressure : (0.0760323 0.000596061 -0.000954299)
        Viscous  : (0.0402224 2.88566e-06 5.46294e-05)
    Sum of moments
        Total    : (2.64294e-05 0.000185307 0.00166356)
        Pressure : (2.83529e-05 0.000213671 0.001468)
        Viscous  : (-1.92351e-06 -2.83641e-05 0.000195552)
    writing force and moment files.

Time = 48

smoothSolver:  Solving for Ux, Initial residual = 5.96807e-05, Final residual = 1.91034e-06, No Iterations 2
smoothSolver:  Solving for Uy, Initial residual = 0.000801629, Final residual = 2.89611e-05, No Iterations 2
smoothSolver:  Solving for Uz, Initial residual = 0.00161981, Final residual = 5.01912e-05, No Iterations 2
GAMG:  Solving for p, Initial residual = 0.00252131, Final residual = 0.000144149, No Iterations 2
time step continuity errors : sum local = 1.37176e-06, global = -2.30258e-07, cumulative = 5.82184e-06
smoothSolver:  Solving for omega, Initial residual = 4.38055e-06, Final residual = 1.26074e-07, No Iterations 2
smoothSolver:  Solving for k, Initial residual = 0.00140189, Final residual = 1.9588e-05, No Iterations 2
ExecutionTime = 44.69 s  ClockTime = 44 s

forces forcesFish write:
    Sum of forces
        Total    : (0.115974 0.00028239 -0.000930694)
        Pressure : (0.0758808 0.000272432 -0.000984608)
        Viscous  : (0.0400936 9.95718e-06 5.39139e-05)
    Sum of moments
        Total    : (2.61691e-05 0.000196988 0.00158474)
        Pressure : (2.80859e-05 0.000225085 0.00138727)
        Viscous  : (-1.91671e-06 -2.80979e-05 0.000197471)
    writing force and moment files.

Time = 49

smoothSolver:  Solving for Ux, Initial residual = 5.51239e-05, Final residual = 1.77136e-06, No Iterations 2
smoothSolver:  Solving for Uy, Initial residual = 0.000786909, Final residual = 2.81129e-05, No Iterations 2
smoothSolver:  Solving for Uz, Initial residual = 0.00154749, Final residual = 4.85451e-05, No Iterations 2
GAMG:  Solving for p, Initial residual = 0.00233779, Final residual = 0.000121836, No Iterations 2
time step continuity errors : sum local = 1.16279e-06, global = -2.44974e-07, cumulative = 5.57687e-06
smoothSolver:  Solving for omega, Initial residual = 3.83009e-06, Final residual = 1.14729e-07, No Iterations 2
smoothSolver:  Solving for k, Initial residual = 0.00120314, Final residual = 1.64398e-05, No Iterations 2
ExecutionTime = 45.53 s  ClockTime = 45 s

forces forcesFish write:
    Sum of forces
        Total    : (0.115702 -8.06186e-06 -0.000986591)
        Pressure : (0.075732 -2.51635e-05 -0.00103975)
        Viscous  : (0.0399699 1.71016e-05 5.31569e-05)
    Sum of moments
        Total    : (2.62123e-05 0.000211463 0.00151677)
        Pressure : (2.81223e-05 0.000239282 0.00131741)
        Viscous  : (-1.90995e-06 -2.78184e-05 0.000199359)
    writing force and moment files.

Time = 50

smoothSolver:  Solving for Ux, Initial residual = 5.36871e-05, Final residual = 1.68428e-06, No Iterations 2
smoothSolver:  Solving for Uy, Initial residual = 0.000769456, Final residual = 2.71813e-05, No Iterations 2
smoothSolver:  Solving for Uz, Initial residual = 0.0014728, Final residual = 4.68082e-05, No Iterations 2
GAMG:  Solving for p, Initial residual = 0.0021692, Final residual = 0.000106363, No Iterations 2
time step continuity errors : sum local = 1.01819e-06, global = -2.07206e-07, cumulative = 5.36966e-06
smoothSolver:  Solving for omega, Initial residual = 3.3625e-06, Final residual = 1.04708e-07, No Iterations 2
smoothSolver:  Solving for k, Initial residual = 0.00102437, Final residual = 1.37485e-05, No Iterations 2
ExecutionTime = 46.43 s  ClockTime = 46 s

forces forcesFish write:
    Sum of forces
        Total    : (0.115439 -0.000257502 -0.00104394)
        Pressure : (0.0755883 -0.000281791 -0.00109632)
        Viscous  : (0.0398509 2.42892e-05 5.238e-05)
    Sum of moments
        Total    : (2.63959e-05 0.000224444 0.00146035)
        Pressure : (2.82992e-05 0.000251977 0.00125914)
        Viscous  : (-1.9033e-06 -2.75326e-05 0.000201204)
    writing force and moment files.

Time = 51

smoothSolver:  Solving for Ux, Initial residual = 5.27546e-05, Final residual = 1.60471e-06, No Iterations 2
smoothSolver:  Solving for Uy, Initial residual = 0.000751082, Final residual = 2.62029e-05, No Iterations 2
smoothSolver:  Solving for Uz, Initial residual = 0.00140322, Final residual = 4.49558e-05, No Iterations 2
GAMG:  Solving for p, Initial residual = 0.00201697, Final residual = 9.38431e-05, No Iterations 2
time step continuity errors : sum local = 9.01195e-07, global = -1.01656e-07, cumulative = 5.26801e-06
smoothSolver:  Solving for omega, Initial residual = 2.96551e-06, Final residual = 9.57105e-08, No Iterations 2
smoothSolver:  Solving for k, Initial residual = 0.000865233, Final residual = 1.14629e-05, No Iterations 2
ExecutionTime = 47.33 s  ClockTime = 47 s

forces forcesFish write:
    Sum of forces
        Total    : (0.115186 -0.000484603 -0.00109383)
        Pressure : (0.0754493 -0.000516019 -0.00114543)
        Viscous  : (0.0397365 3.1416e-05 5.15992e-05)
    Sum of moments
        Total    : (2.66324e-05 0.000234668 0.00140878)
        Pressure : (2.8529e-05 0.000261911 0.00120579)
        Viscous  : (-1.89657e-06 -2.72432e-05 0.000202989)
    writing force and moment files.

Time = 52

smoothSolver:  Solving for Ux, Initial residual = 5.1436e-05, Final residual = 1.5216e-06, No Iterations 2
smoothSolver:  Solving for Uy, Initial residual = 0.000735866, Final residual = 2.52831e-05, No Iterations 2
smoothSolver:  Solving for Uz, Initial residual = 0.00135243, Final residual = 4.34038e-05, No Iterations 2
GAMG:  Solving for p, Initial residual = 0.00188089, Final residual = 8.23664e-05, No Iterations 2
time step continuity errors : sum local = 7.93386e-07, global = 3.63347e-08, cumulative = 5.30434e-06
smoothSolver:  Solving for omega, Initial residual = 2.62816e-06, Final residual = 8.75345e-08, No Iterations 2
smoothSolver:  Solving for k, Initial residual = 0.000725551, Final residual = 9.53827e-06, No Iterations 2
ExecutionTime = 48.17 s  ClockTime = 48 s

forces forcesFish write:
    Sum of forces
        Total    : (0.114939 -0.00070185 -0.00113275)
        Pressure : (0.0753123 -0.000740194 -0.00118357)
        Viscous  : (0.0396268 3.83443e-05 5.08275e-05)
    Sum of moments
        Total    : (2.68685e-05 0.000241735 0.00135777)
        Pressure : (2.8758e-05 0.000268691 0.00115308)
        Viscous  : (-1.88959e-06 -2.69562e-05 0.00020469)
    writing force and moment files.

Time = 53

smoothSolver:  Solving for Ux, Initial residual = 4.96898e-05, Final residual = 1.43516e-06, No Iterations 2
smoothSolver:  Solving for Uy, Initial residual = 0.000725532, Final residual = 2.44716e-05, No Iterations 2
smoothSolver:  Solving for Uz, Initial residual = 0.0013332, Final residual = 4.23977e-05, No Iterations 2
GAMG:  Solving for p, Initial residual = 0.00176397, Final residual = 7.63505e-05, No Iterations 2
time step continuity errors : sum local = 7.37485e-07, global = 1.71176e-07, cumulative = 5.47552e-06
smoothSolver:  Solving for omega, Initial residual = 2.34217e-06, Final residual = 8.01209e-08, No Iterations 2
smoothSolver:  Solving for k, Initial residual = 0.000604398, Final residual = 7.92679e-06, No Iterations 2
ExecutionTime = 49.04 s  ClockTime = 49 s

forces forcesFish write:
    Sum of forces
        Total    : (0.114698 -0.000913086 -0.00115862)
        Pressure : (0.0751767 -0.000958016 -0.0012087)
        Viscous  : (0.0395217 4.49309e-05 5.00733e-05)
    Sum of moments
        Total    : (2.70581e-05 0.000245489 0.0013058)
        Pressure : (2.89403e-05 0.000272163 0.00109952)
        Viscous  : (-1.88226e-06 -2.66738e-05 0.00020628)
    writing force and moment files.

Time = 54

smoothSolver:  Solving for Ux, Initial residual = 4.74895e-05, Final residual = 1.34628e-06, No Iterations 2
smoothSolver:  Solving for Uy, Initial residual = 0.000720003, Final residual = 2.37569e-05, No Iterations 2
smoothSolver:  Solving for Uz, Initial residual = 0.00132059, Final residual = 4.15406e-05, No Iterations 2
GAMG:  Solving for p, Initial residual = 0.00166312, Final residual = 7.95869e-05, No Iterations 2
time step continuity errors : sum local = 7.70726e-07, global = 2.54796e-07, cumulative = 5.73031e-06
smoothSolver:  Solving for omega, Initial residual = 2.09947e-06, Final residual = 7.33878e-08, No Iterations 2
smoothSolver:  Solving for k, Initial residual = 0.000500416, Final residual = 6.5824e-06, No Iterations 2
ExecutionTime = 49.9 s  ClockTime = 49 s

forces forcesFish write:
    Sum of forces
        Total    : (0.114466 -0.00112616 -0.00117115)
        Pressure : (0.0750442 -0.00117721 -0.00122049)
        Viscous  : (0.0394213 5.10497e-05 4.93403e-05)
    Sum of moments
        Total    : (2.71651e-05 0.000246067 0.00125102)
        Pressure : (2.90396e-05 0.000272465 0.00104328)
        Viscous  : (-1.87452e-06 -2.63983e-05 0.000207736)
    writing force and moment files.

Time = 55

smoothSolver:  Solving for Ux, Initial residual = 4.43435e-05, Final residual = 1.24948e-06, No Iterations 2
smoothSolver:  Solving for Uy, Initial residual = 0.000719274, Final residual = 2.31421e-05, No Iterations 2
smoothSolver:  Solving for Uz, Initial residual = 0.00130562, Final residual = 4.06927e-05, No Iterations 2
GAMG:  Solving for p, Initial residual = 0.00157472, Final residual = 8.82404e-05, No Iterations 2
time step continuity errors : sum local = 8.56717e-07, global = 2.21646e-07, cumulative = 5.95196e-06
smoothSolver:  Solving for omega, Initial residual = 1.89272e-06, Final residual = 6.7283e-08, No Iterations 2
smoothSolver:  Solving for k, Initial residual = 0.000412158, Final residual = 5.4653e-06, No Iterations 2
ExecutionTime = 50.77 s  ClockTime = 50 s

forces forcesFish write:
    Sum of forces
        Total    : (0.114245 -0.00134817 -0.00117008)
        Pressure : (0.0749199 -0.00140478 -0.00121871)
        Viscous  : (0.0393255 5.66067e-05 4.86297e-05)
    Sum of moments
        Total    : (2.71543e-05 0.000243631 0.00119211)
        Pressure : (2.90207e-05 0.000269761 0.000983065)
        Viscous  : (-1.86635e-06 -2.61299e-05 0.00020904)
    writing force and moment files.

Time = 56

smoothSolver:  Solving for Ux, Initial residual = 3.93911e-05, Final residual = 1.13344e-06, No Iterations 2
smoothSolver:  Solving for Uy, Initial residual = 0.000722776, Final residual = 2.26459e-05, No Iterations 2
smoothSolver:  Solving for Uz, Initial residual = 0.00128872, Final residual = 3.98736e-05, No Iterations 2
GAMG:  Solving for p, Initial residual = 0.00149214, Final residual = 9.20202e-05, No Iterations 2
time step continuity errors : sum local = 8.96011e-07, global = 1.47177e-07, cumulative = 6.09914e-06
smoothSolver:  Solving for omega, Initial residual = 1.7155e-06, Final residual = 6.17535e-08, No Iterations 2
smoothSolver:  Solving for k, Initial residual = 0.000337968, Final residual = 4.53925e-06, No Iterations 2
ExecutionTime = 51.65 s  ClockTime = 51 s

forces forcesFish write:
    Sum of forces
        Total    : (0.114046 -0.0015542 -0.0011564)
        Pressure : (0.0748112 -0.00161575 -0.00120434)
        Viscous  : (0.0392344 6.15536e-05 4.79422e-05)
    Sum of moments
        Total    : (2.70175e-05 0.000238967 0.00113595)
        Pressure : (2.88753e-05 0.000264837 0.000925765)
        Viscous  : (-1.85785e-06 -2.58694e-05 0.000210184)
    writing force and moment files.

Time = 57

smoothSolver:  Solving for Ux, Initial residual = 3.47275e-05, Final residual = 1.02635e-06, No Iterations 2
smoothSolver:  Solving for Uy, Initial residual = 0.000725967, Final residual = 2.21791e-05, No Iterations 2
smoothSolver:  Solving for Uz, Initial residual = 0.00126523, Final residual = 3.88448e-05, No Iterations 2
GAMG:  Solving for p, Initial residual = 0.00141631, Final residual = 8.40617e-05, No Iterations 2
time step continuity errors : sum local = 8.21121e-07, global = 1.50989e-07, cumulative = 6.25013e-06
smoothSolver:  Solving for omega, Initial residual = 1.56173e-06, Final residual = 5.67044e-08, No Iterations 2
smoothSolver:  Solving for k, Initial residual = 0.000276156, Final residual = 3.77275e-06, No Iterations 2
ExecutionTime = 52.51 s  ClockTime = 52 s

forces forcesFish write:
    Sum of forces
        Total    : (0.113867 -0.00171878 -0.0011361)
        Pressure : (0.0747193 -0.00178465 -0.00118338)
        Viscous  : (0.0391477 6.58731e-05 4.72808e-05)
    Sum of moments
        Total    : (2.68009e-05 0.000233773 0.00108979)
        Pressure : (2.865e-05 0.000259392 0.000878624)
        Viscous  : (-1.84917e-06 -2.56191e-05 0.000211162)
    writing force and moment files.

Time = 58

smoothSolver:  Solving for Ux, Initial residual = 3.3971e-05, Final residual = 9.74192e-07, No Iterations 2
smoothSolver:  Solving for Uy, Initial residual = 0.000724393, Final residual = 2.1585e-05, No Iterations 2
smoothSolver:  Solving for Uz, Initial residual = 0.00123155, Final residual = 3.74636e-05, No Iterations 2
GAMG:  Solving for p, Initial residual = 0.00134235, Final residual = 7.10051e-05, No Iterations 2
time step continuity errors : sum local = 6.9553e-07, global = 1.85343e-07, cumulative = 6.43547e-06
smoothSolver:  Solving for omega, Initial residual = 1.42706e-06, Final residual = 5.2063e-08, No Iterations 2
smoothSolver:  Solving for k, Initial residual = 0.000225058, Final residual = 3.13888e-06, No Iterations 2
ExecutionTime = 53.39 s  ClockTime = 53 s

forces forcesFish write:
    Sum of forces
        Total    : (0.113705 -0.00184166 -0.00111623)
        Pressure : (0.0746396 -0.00191123 -0.00116288)
        Viscous  : (0.0390655 6.95639e-05 4.66499e-05)
    Sum of moments
        Total    : (2.65631e-05 0.000229494 0.00105438)
        Pressure : (2.84036e-05 0.000254876 0.000842409)
        Viscous  : (-1.84052e-06 -2.53815e-05 0.000211969)
    writing force and moment files.

Time = 59

smoothSolver:  Solving for Ux, Initial residual = 3.41773e-05, Final residual = 9.34381e-07, No Iterations 2
smoothSolver:  Solving for Uy, Initial residual = 0.000716521, Final residual = 2.08264e-05, No Iterations 2
smoothSolver:  Solving for Uz, Initial residual = 0.00119265, Final residual = 3.58271e-05, No Iterations 2
GAMG:  Solving for p, Initial residual = 0.00127237, Final residual = 5.97241e-05, No Iterations 2
time step continuity errors : sum local = 5.86231e-07, global = 1.7696e-07, cumulative = 6.61243e-06
smoothSolver:  Solving for omega, Initial residual = 1.3082e-06, Final residual = 4.77891e-08, No Iterations 2
smoothSolver:  Solving for k, Initial residual = 0.000183084, Final residual = 2.61467e-06, No Iterations 2
ExecutionTime = 54.26 s  ClockTime = 54 s

forces forcesFish write:
    Sum of forces
        Total    : (0.113555 -0.00193912 -0.00110042)
        Pressure : (0.0745675 -0.00201176 -0.00114647)
        Viscous  : (0.0389874 7.26411e-05 4.60525e-05)
    Sum of moments
        Total    : (2.63347e-05 0.000226618 0.00102588)
        Pressure : (2.81669e-05 0.000251773 0.000813279)
        Viscous  : (-1.83212e-06 -2.51551e-05 0.000212605)
    writing force and moment files.

Time = 60

smoothSolver:  Solving for Ux, Initial residual = 3.39176e-05, Final residual = 8.92241e-07, No Iterations 2
smoothSolver:  Solving for Uy, Initial residual = 0.000704495, Final residual = 1.99703e-05, No Iterations 2
smoothSolver:  Solving for Uz, Initial residual = 0.00115563, Final residual = 3.41739e-05, No Iterations 2
GAMG:  Solving for p, Initial residual = 0.00120693, Final residual = 5.10343e-05, No Iterations 2
time step continuity errors : sum local = 5.01631e-07, global = 1.2193e-07, cumulative = 6.73436e-06
smoothSolver:  Solving for omega, Initial residual = 1.20233e-06, Final residual = 4.38509e-08, No Iterations 2
smoothSolver:  Solving for k, Initial residual = 0.000148815, Final residual = 2.18133e-06, No Iterations 2
ExecutionTime = 55.12 s  ClockTime = 55 s

forces forcesFish write:
    Sum of forces
        Total    : (0.113414 -0.00202936 -0.00108906)
        Pressure : (0.0745006 -0.0021045 -0.00113455)
        Viscous  : (0.0389133 7.51352e-05 4.54878e-05)
    Sum of moments
        Total    : (2.61206e-05 0.000224954 0.000999593)
        Pressure : (2.79446e-05 0.000249893 0.00078652)
        Viscous  : (-1.82402e-06 -2.49399e-05 0.000213073)
    writing force and moment files.

Time = 61

smoothSolver:  Solving for Ux, Initial residual = 3.3186e-05, Final residual = 8.47231e-07, No Iterations 2
smoothSolver:  Solving for Uy, Initial residual = 0.000690539, Final residual = 1.91117e-05, No Iterations 2
smoothSolver:  Solving for Uz, Initial residual = 0.00112903, Final residual = 3.27537e-05, No Iterations 2
GAMG:  Solving for p, Initial residual = 0.00114813, Final residual = 4.45352e-05, No Iterations 2
time step continuity errors : sum local = 4.38159e-07, global = 4.43361e-08, cumulative = 6.77869e-06
smoothSolver:  Solving for omega, Initial residual = 1.10721e-06, Final residual = 4.02128e-08, No Iterations 2
smoothSolver:  Solving for k, Initial residual = 0.00012097, Final residual = 1.82299e-06, No Iterations 2
ExecutionTime = 55.99 s  ClockTime = 56 s

forces forcesFish write:
    Sum of forces
        Total    : (0.113281 -0.00212276 -0.0010817)
        Pressure : (0.0744385 -0.00219985 -0.00112665)
        Viscous  : (0.038843 7.70886e-05 4.49524e-05)
    Sum of moments
        Total    : (2.59231e-05 0.000224216 0.000972624)
        Pressure : (2.77394e-05 0.000248951 0.00075924)
        Viscous  : (-1.81627e-06 -2.47348e-05 0.000213384)
    writing force and moment files.

Time = 62

smoothSolver:  Solving for Ux, Initial residual = 3.21083e-05, Final residual = 8.00819e-07, No Iterations 2
smoothSolver:  Solving for Uy, Initial residual = 0.000676446, Final residual = 1.82969e-05, No Iterations 2
smoothSolver:  Solving for Uz, Initial residual = 0.00110693, Final residual = 3.15009e-05, No Iterations 2
GAMG:  Solving for p, Initial residual = 0.00109524, Final residual = 4.06461e-05, No Iterations 2
time step continuity errors : sum local = 4.00143e-07, global = -3.84343e-08, cumulative = 6.74026e-06
smoothSolver:  Solving for omega, Initial residual = 1.02082e-06, Final residual = 3.68449e-08, No Iterations 2
smoothSolver:  Solving for k, Initial residual = 9.84251e-05, Final residual = 1.52649e-06, No Iterations 2
ExecutionTime = 56.86 s  ClockTime = 56 s

forces forcesFish write:
    Sum of forces
        Total    : (0.113157 -0.00222212 -0.00107776)
        Pressure : (0.0743805 -0.00230067 -0.0011222)
        Viscous  : (0.0387764 7.85436e-05 4.44412e-05)
    Sum of moments
        Total    : (2.57475e-05 0.000224157 0.000944018)
        Pressure : (2.75564e-05 0.000248695 0.00073047)
        Viscous  : (-1.80887e-06 -2.45378e-05 0.000213549)
    writing force and moment files.

Time = 63

smoothSolver:  Solving for Ux, Initial residual = 3.07918e-05, Final residual = 7.54308e-07, No Iterations 2
smoothSolver:  Solving for Uy, Initial residual = 0.000662786, Final residual = 1.75565e-05, No Iterations 2
smoothSolver:  Solving for Uz, Initial residual = 0.00108396, Final residual = 3.0364e-05, No Iterations 2
GAMG:  Solving for p, Initial residual = 0.00104829, Final residual = 4.23008e-05, No Iterations 2
time step continuity errors : sum local = 4.16591e-07, global = -1.10378e-07, cumulative = 6.62988e-06
smoothSolver:  Solving for omega, Initial residual = 9.41653e-07, Final residual = 3.37176e-08, No Iterations 2
smoothSolver:  Solving for k, Initial residual = 8.02148e-05, Final residual = 1.28087e-06, No Iterations 2
ExecutionTime = 57.72 s  ClockTime = 57 s

forces forcesFish write:
    Sum of forces
        Total    : (0.11304 -0.00232608 -0.00107654)
        Pressure : (0.0743264 -0.00240562 -0.00112049)
        Viscous  : (0.0387131 7.95375e-05 4.39512e-05)
    Sum of moments
        Total    : (2.55976e-05 0.000224541 0.000913938)
        Pressure : (2.73994e-05 0.000248889 0.00070036)
        Viscous  : (-1.80179e-06 -2.43477e-05 0.000213578)
    writing force and moment files.

Time = 64

smoothSolver:  Solving for Ux, Initial residual = 2.9197e-05, Final residual = 7.06915e-07, No Iterations 2
smoothSolver:  Solving for Uy, Initial residual = 0.000649513, Final residual = 1.68783e-05, No Iterations 2
smoothSolver:  Solving for Uz, Initial residual = 0.00106043, Final residual = 2.93363e-05, No Iterations 2
[...]
        Viscous  : (-1.77141e-06 -2.38001e-05 0.000167653)
    writing force and moment files.

Time = 207

smoothSolver:  Solving for Ux, Initial residual = 9.66256e-08, Final residual = 2.13023e-09, No Iterations 2
smoothSolver:  Solving for Uy, Initial residual = 4.57794e-06, Final residual = 1.0368e-07, No Iterations 2
smoothSolver:  Solving for Uz, Initial residual = 1.1046e-05, Final residual = 2.83935e-07, No Iterations 2
GAMG:  Solving for p, Initial residual = 1.0789e-05, Final residual = 5.67815e-07, No Iterations 2
time step continuity errors : sum local = 5.57645e-09, global = -2.16547e-09, cumulative = 6.14859e-06
smoothSolver:  Solving for omega, Initial residual = 1.03218e-08, Final residual = 1.18855e-09, No Iterations 1
smoothSolver:  Solving for k, Initial residual = 2.61731e-08, Final residual = 1.89243e-09, No Iterations 1
ExecutionTime = 181.56 s  ClockTime = 181 s

forces forcesFish write:
    Sum of forces
        Total    : (0.1115 -0.00221614 -0.00114639)
        Pressure : (0.0737443 -0.00219004 -0.00118888)
        Viscous  : (0.0377559 -2.61009e-05 4.24885e-05)
    Sum of moments
        Total    : (2.61092e-05 0.000236543 0.000705795)
        Pressure : (2.78806e-05 0.000260343 0.000538155)
        Viscous  : (-1.77139e-06 -2.38004e-05 0.00016764)
    writing force and moment files.

Time = 208

smoothSolver:  Solving for Ux, Initial residual = 9.88944e-08, Final residual = 2.13383e-09, No Iterations 2
smoothSolver:  Solving for Uy, Initial residual = 4.54303e-06, Final residual = 1.02505e-07, No Iterations 2
smoothSolver:  Solving for Uz, Initial residual = 1.09519e-05, Final residual = 2.80432e-07, No Iterations 2
GAMG:  Solving for p, Initial residual = 1.07176e-05, Final residual = 5.47124e-07, No Iterations 2
time step continuity errors : sum local = 5.37325e-09, global = -2.00005e-09, cumulative = 6.14659e-06
smoothSolver:  Solving for omega, Initial residual = 6.56624e-09, Final residual = 6.56624e-09, No Iterations 0
smoothSolver:  Solving for k, Initial residual = 2.61077e-08, Final residual = 1.86642e-09, No Iterations 1
ExecutionTime = 182.37 s  ClockTime = 182 s

forces forcesFish write:
    Sum of forces
        Total    : (0.1115 -0.00221327 -0.0011467)
        Pressure : (0.0737442 -0.00218714 -0.00118919)
        Viscous  : (0.0377559 -2.61275e-05 4.24882e-05)
    Sum of moments
        Total    : (2.6111e-05 0.00023665 0.000706643)
        Pressure : (2.78823e-05 0.000260451 0.000539015)
        Viscous  : (-1.77138e-06 -2.38008e-05 0.000167627)
    writing force and moment files.

Time = 209

smoothSolver:  Solving for Ux, Initial residual = 1.01826e-07, Final residual = 2.1508e-09, No Iterations 2
smoothSolver:  Solving for Uy, Initial residual = 4.50992e-06, Final residual = 1.01432e-07, No Iterations 2
smoothSolver:  Solving for Uz, Initial residual = 1.08677e-05, Final residual = 2.77257e-07, No Iterations 2
GAMG:  Solving for p, Initial residual = 1.06562e-05, Final residual = 5.20261e-07, No Iterations 2
time step continuity errors : sum local = 5.10942e-09, global = -1.77313e-09, cumulative = 6.14481e-06
smoothSolver:  Solving for omega, Initial residual = 8.27558e-09, Final residual = 8.27558e-09, No Iterations 0
smoothSolver:  Solving for k, Initial residual = 2.61798e-08, Final residual = 1.83385e-09, No Iterations 1
ExecutionTime = 183.17 s  ClockTime = 183 s

forces forcesFish write:
    Sum of forces
        Total    : (0.1115 -0.0022104 -0.00114701)
        Pressure : (0.0737441 -0.00218425 -0.0011895)
        Viscous  : (0.0377559 -2.61543e-05 4.2488e-05)
    Sum of moments
        Total    : (2.61127e-05 0.00023676 0.000707489)
        Pressure : (2.7884e-05 0.000260561 0.000539874)
        Viscous  : (-1.77136e-06 -2.38013e-05 0.000167614)
    writing force and moment files.

Time = 210

smoothSolver:  Solving for Ux, Initial residual = 1.04656e-07, Final residual = 2.16799e-09, No Iterations 2
smoothSolver:  Solving for Uy, Initial residual = 4.47808e-06, Final residual = 1.00427e-07, No Iterations 2
smoothSolver:  Solving for Uz, Initial residual = 1.0788e-05, Final residual = 2.74286e-07, No Iterations 2
GAMG:  Solving for p, Initial residual = 1.05937e-05, Final residual = 4.88922e-07, No Iterations 2
time step continuity errors : sum local = 4.80164e-09, global = -1.49542e-09, cumulative = 6.14332e-06
smoothSolver:  Solving for omega, Initial residual = 1.00001e-08, Final residual = 1.14802e-09, No Iterations 1
smoothSolver:  Solving for k, Initial residual = 2.55343e-08, Final residual = 1.82565e-09, No Iterations 1
ExecutionTime = 183.97 s  ClockTime = 184 s

forces forcesFish write:
    Sum of forces
        Total    : (0.1115 -0.00220755 -0.00114733)
        Pressure : (0.073744 -0.00218137 -0.00118982)
        Viscous  : (0.0377559 -2.61812e-05 4.24878e-05)
    Sum of moments
        Total    : (2.61144e-05 0.000236872 0.000708332)
        Pressure : (2.78858e-05 0.000260673 0.000540731)
        Viscous  : (-1.77135e-06 -2.38017e-05 0.000167601)
    writing force and moment files.

Time = 211

smoothSolver:  Solving for Ux, Initial residual = 1.07111e-07, Final residual = 2.17801e-09, No Iterations 2
smoothSolver:  Solving for Uy, Initial residual = 4.44636e-06, Final residual = 9.94507e-08, No Iterations 2
smoothSolver:  Solving for Uz, Initial residual = 1.07064e-05, Final residual = 2.71387e-07, No Iterations 2
GAMG:  Solving for p, Initial residual = 1.05357e-05, Final residual = 4.55087e-07, No Iterations 2
time step continuity errors : sum local = 4.46934e-09, global = -1.17829e-09, cumulative = 6.14214e-06
smoothSolver:  Solving for omega, Initial residual = 6.38625e-09, Final residual = 6.38625e-09, No Iterations 0
smoothSolver:  Solving for k, Initial residual = 2.5512e-08, Final residual = 1.80461e-09, No Iterations 1
ExecutionTime = 184.81 s  ClockTime = 184 s

forces forcesFish write:
    Sum of forces
        Total    : (0.1115 -0.0022047 -0.00114766)
        Pressure : (0.0737438 -0.0021785 -0.00119015)
        Viscous  : (0.0377559 -2.6208e-05 4.24877e-05)
    Sum of moments
        Total    : (2.61162e-05 0.000236985 0.000709173)
        Pressure : (2.78875e-05 0.000260787 0.000541584)
        Viscous  : (-1.77133e-06 -2.38022e-05 0.000167589)
    writing force and moment files.

Time = 212

smoothSolver:  Solving for Ux, Initial residual = 1.08916e-07, Final residual = 2.18627e-09, No Iterations 2
smoothSolver:  Solving for Uy, Initial residual = 4.41629e-06, Final residual = 9.85572e-08, No Iterations 2
smoothSolver:  Solving for Uz, Initial residual = 1.06336e-05, Final residual = 2.68759e-07, No Iterations 2
GAMG:  Solving for p, Initial residual = 1.0482e-05, Final residual = 4.21031e-07, No Iterations 2
time step continuity errors : sum local = 4.13488e-09, global = -8.33281e-10, cumulative = 6.14131e-06
smoothSolver:  Solving for omega, Initial residual = 8.0508e-09, Final residual = 8.0508e-09, No Iterations 0
smoothSolver:  Solving for k, Initial residual = 2.56222e-08, Final residual = 1.77753e-09, No Iterations 1
ExecutionTime = 185.66 s  ClockTime = 185 s

forces forcesFish write:
    Sum of forces
        Total    : (0.1115 -0.00220188 -0.00114799)
        Pressure : (0.0737437 -0.00217564 -0.00119048)
        Viscous  : (0.0377559 -2.62347e-05 4.24878e-05)
    Sum of moments
        Total    : (2.61179e-05 0.000237101 0.000710008)
        Pressure : (2.78892e-05 0.000260904 0.000542433)
        Viscous  : (-1.77132e-06 -2.38027e-05 0.000167576)
    writing force and moment files.

Time = 213

smoothSolver:  Solving for Ux, Initial residual = 1.10065e-07, Final residual = 2.188e-09, No Iterations 2
smoothSolver:  Solving for Uy, Initial residual = 4.38727e-06, Final residual = 9.77113e-08, No Iterations 2
smoothSolver:  Solving for Uz, Initial residual = 1.05635e-05, Final residual = 2.66273e-07, No Iterations 2
GAMG:  Solving for p, Initial residual = 1.0434e-05, Final residual = 3.90713e-07, No Iterations 2
time step continuity errors : sum local = 3.83713e-09, global = -4.72865e-10, cumulative = 6.14084e-06
smoothSolver:  Solving for omega, Initial residual = 9.72677e-09, Final residual = 9.72677e-09, No Iterations 0
smoothSolver:  Solving for k, Initial residual = 2.57914e-08, Final residual = 1.76559e-09, No Iterations 1
ExecutionTime = 186.5 s  ClockTime = 186 s

forces forcesFish write:
    Sum of forces
        Total    : (0.111499 -0.00219907 -0.00114833)
        Pressure : (0.0737435 -0.00217281 -0.00119082)
        Viscous  : (0.037756 -2.6261e-05 4.24879e-05)
    Sum of moments
        Total    : (2.61196e-05 0.000237218 0.000710839)
        Pressure : (2.78909e-05 0.000261022 0.000543277)
        Viscous  : (-1.77131e-06 -2.38032e-05 0.000167563)
    writing force and moment files.

Time = 214

smoothSolver:  Solving for Ux, Initial residual = 1.10508e-07, Final residual = 2.18251e-09, No Iterations 2
smoothSolver:  Solving for Uy, Initial residual = 4.35939e-06, Final residual = 9.69144e-08, No Iterations 2
smoothSolver:  Solving for Uz, Initial residual = 1.0496e-05, Final residual = 2.63918e-07, No Iterations 2
GAMG:  Solving for p, Initial residual = 1.03935e-05, Final residual = 3.70642e-07, No Iterations 2
time step continuity errors : sum local = 3.64002e-09, global = -1.16561e-10, cumulative = 6.14072e-06
smoothSolver:  Solving for omega, Initial residual = 1.13982e-08, Final residual = 1.25456e-09, No Iterations 1
smoothSolver:  Solving for k, Initial residual = 2.49936e-08, Final residual = 1.76001e-09, No Iterations 1
ExecutionTime = 187.36 s  ClockTime = 187 s

forces forcesFish write:
    Sum of forces
        Total    : (0.111499 -0.00219627 -0.00114868)
        Pressure : (0.0737434 -0.00216999 -0.00119117)
        Viscous  : (0.037756 -2.62873e-05 4.2488e-05)
    Sum of moments
        Total    : (2.61214e-05 0.000237338 0.000711666)
        Pressure : (2.78927e-05 0.000261142 0.000544116)
        Viscous  : (-1.7713e-06 -2.38038e-05 0.00016755)
    writing force and moment files.

Time = 215

smoothSolver:  Solving for Ux, Initial residual = 1.10215e-07, Final residual = 2.16469e-09, No Iterations 2
smoothSolver:  Solving for Uy, Initial residual = 4.33163e-06, Final residual = 9.61269e-08, No Iterations 2
smoothSolver:  Solving for Uz, Initial residual = 1.04245e-05, Final residual = 2.61568e-07, No Iterations 2
GAMG:  Solving for p, Initial residual = 1.03637e-05, Final residual = 3.59948e-07, No Iterations 2
time step continuity errors : sum local = 3.53499e-09, global = 2.52851e-10, cumulative = 6.14097e-06
smoothSolver:  Solving for omega, Initial residual = 6.71571e-09, Final residual = 6.71571e-09, No Iterations 0
smoothSolver:  Solving for k, Initial residual = 2.50078e-08, Final residual = 1.74849e-09, No Iterations 1
ExecutionTime = 188.16 s  ClockTime = 188 s

forces forcesFish write:
    Sum of forces
        Total    : (0.111499 -0.00219349 -0.00114903)
        Pressure : (0.0737432 -0.00216718 -0.00119152)
        Viscous  : (0.037756 -2.63134e-05 4.24882e-05)
    Sum of moments
        Total    : (2.61231e-05 0.000237459 0.000712488)
        Pressure : (2.78944e-05 0.000261263 0.000544951)
        Viscous  : (-1.77129e-06 -2.38043e-05 0.000167538)
    writing force and moment files.

Time = 216

smoothSolver:  Solving for Ux, Initial residual = 1.09302e-07, Final residual = 2.145e-09, No Iterations 2
smoothSolver:  Solving for Uy, Initial residual = 4.30528e-06, Final residual = 9.54108e-08, No Iterations 2
smoothSolver:  Solving for Uz, Initial residual = 1.03592e-05, Final residual = 2.5942e-07, No Iterations 2
GAMG:  Solving for p, Initial residual = 1.03469e-05, Final residual = 3.59665e-07, No Iterations 2
time step continuity errors : sum local = 3.53221e-09, global = 5.73086e-10, cumulative = 6.14154e-06
smoothSolver:  Solving for omega, Initial residual = 8.32779e-09, Final residual = 8.32779e-09, No Iterations 0
smoothSolver:  Solving for k, Initial residual = 2.51754e-08, Final residual = 1.72992e-09, No Iterations 1
ExecutionTime = 188.96 s  ClockTime = 189 s

forces forcesFish write:
    Sum of forces
        Total    : (0.111499 -0.00219073 -0.00114938)
        Pressure : (0.0737431 -0.00216439 -0.00119187)
        Viscous  : (0.037756 -2.63395e-05 4.24883e-05)
    Sum of moments
        Total    : (2.61248e-05 0.000237582 0.000713306)
        Pressure : (2.78961e-05 0.000261387 0.000545781)
        Viscous  : (-1.77127e-06 -2.38049e-05 0.000167525)
    writing force and moment files.

Time = 217

smoothSolver:  Solving for Ux, Initial residual = 1.07632e-07, Final residual = 2.11738e-09, No Iterations 2
smoothSolver:  Solving for Uy, Initial residual = 4.27923e-06, Final residual = 9.47211e-08, No Iterations 2
smoothSolver:  Solving for Uz, Initial residual = 1.02946e-05, Final residual = 2.5734e-07, No Iterations 2
GAMG:  Solving for p, Initial residual = 1.03493e-05, Final residual = 3.764e-07, No Iterations 2
time step continuity errors : sum local = 3.69656e-09, global = 8.66251e-10, cumulative = 6.14241e-06
smoothSolver:  Solving for omega, Initial residual = 9.95274e-09, Final residual = 9.95274e-09, No Iterations 0
smoothSolver:  Solving for k, Initial residual = 2.53815e-08, Final residual = 1.72447e-09, No Iterations 1
ExecutionTime = 189.83 s  ClockTime = 189 s

forces forcesFish write:
    Sum of forces
        Total    : (0.111499 -0.00218798 -0.00114974)
        Pressure : (0.0737429 -0.00216162 -0.00119223)
        Viscous  : (0.037756 -2.63655e-05 4.24883e-05)
    Sum of moments
        Total    : (2.61266e-05 0.000237706 0.000714121)
        Pressure : (2.78979e-05 0.000261512 0.000546608)
        Viscous  : (-1.77126e-06 -2.38054e-05 0.000167513)
    writing force and moment files.

Time = 218

smoothSolver:  Solving for Ux, Initial residual = 1.05336e-07, Final residual = 2.08329e-09, No Iterations 2
smoothSolver:  Solving for Uy, Initial residual = 4.25352e-06, Final residual = 9.40616e-08, No Iterations 2
smoothSolver:  Solving for Uz, Initial residual = 1.02318e-05, Final residual = 2.55355e-07, No Iterations 2
GAMG:  Solving for p, Initial residual = 1.03623e-05, Final residual = 4.01114e-07, No Iterations 2
time step continuity errors : sum local = 3.93928e-09, global = 1.1159e-09, cumulative = 6.14353e-06
smoothSolver:  Solving for omega, Initial residual = 1.15808e-08, Final residual = 1.27613e-09, No Iterations 1
smoothSolver:  Solving for k, Initial residual = 2.45028e-08, Final residual = 1.71798e-09, No Iterations 1
ExecutionTime = 190.69 s  ClockTime = 190 s

forces forcesFish write:
    Sum of forces
        Total    : (0.111499 -0.00218525 -0.00115011)
        Pressure : (0.0737428 -0.00215886 -0.0011926)
        Viscous  : (0.037756 -2.63916e-05 4.24881e-05)
    Sum of moments
        Total    : (2.61283e-05 0.000237832 0.000714932)
        Pressure : (2.78996e-05 0.000261638 0.000547432)
        Viscous  : (-1.77125e-06 -2.38058e-05 0.0001675)
    writing force and moment files.

Time = 219

smoothSolver:  Solving for Ux, Initial residual = 1.02542e-07, Final residual = 2.03963e-09, No Iterations 2
smoothSolver:  Solving for Uy, Initial residual = 4.22709e-06, Final residual = 9.34034e-08, No Iterations 2
smoothSolver:  Solving for Uz, Initial residual = 1.01648e-05, Final residual = 2.5336e-07, No Iterations 2
GAMG:  Solving for p, Initial residual = 1.03907e-05, Final residual = 4.23274e-07, No Iterations 2
time step continuity errors : sum local = 4.15691e-09, global = 1.31519e-09, cumulative = 6.14484e-06
smoothSolver:  Solving for omega, Initial residual = 6.7883e-09, Final residual = 6.7883e-09, No Iterations 0
smoothSolver:  Solving for k, Initial residual = 2.45263e-08, Final residual = 1.70906e-09, No Iterations 1
ExecutionTime = 191.52 s  ClockTime = 191 s

forces forcesFish write:
    Sum of forces
        Total    : (0.111499 -0.00218253 -0.00115048)
        Pressure : (0.0737426 -0.00215611 -0.00119297)
        Viscous  : (0.037756 -2.64182e-05 4.24878e-05)
    Sum of moments
        Total    : (2.61301e-05 0.00023796 0.000715741)
        Pressure : (2.79013e-05 0.000261766 0.000548254)
        Viscous  : (-1.77123e-06 -2.38061e-05 0.000167487)
    writing force and moment files.

Time = 220

smoothSolver:  Solving for Ux, Initial residual = 9.92674e-08, Final residual = 1.99593e-09, No Iterations 2
smoothSolver:  Solving for Uy, Initial residual = 4.20156e-06, Final residual = 9.28163e-08, No Iterations 2
smoothSolver:  Solving for Uz, Initial residual = 1.01049e-05, Final residual = 2.51603e-07, No Iterations 2
GAMG:  Solving for p, Initial residual = 1.0421e-05, Final residual = 4.40858e-07, No Iterations 2
time step continuity errors : sum local = 4.32961e-09, global = 1.46085e-09, cumulative = 6.1463e-06
smoothSolver:  Solving for omega, Initial residual = 8.37637e-09, Final residual = 8.37637e-09, No Iterations 0
smoothSolver:  Solving for k, Initial residual = 2.47006e-08, Final residual = 1.69237e-09, No Iterations 1
ExecutionTime = 192.36 s  ClockTime = 192 s

forces forcesFish write:
    Sum of forces
        Total    : (0.111499 -0.00217981 -0.00115086)
        Pressure : (0.0737425 -0.00215337 -0.00119334)
        Viscous  : (0.037756 -2.6445e-05 4.24875e-05)
    Sum of moments
        Total    : (2.61319e-05 0.000238089 0.000716547)
        Pressure : (2.79031e-05 0.000261895 0.000549073)
        Viscous  : (-1.77122e-06 -2.38065e-05 0.000167474)
    writing force and moment files.

Time = 221

smoothSolver:  Solving for Ux, Initial residual = 9.57404e-08, Final residual = 1.95062e-09, No Iterations 2
smoothSolver:  Solving for Uy, Initial residual = 4.17578e-06, Final residual = 9.22663e-08, No Iterations 2
smoothSolver:  Solving for Uz, Initial residual = 1.00467e-05, Final residual = 2.49965e-07, No Iterations 2
GAMG:  Solving for p, Initial residual = 1.04438e-05, Final residual = 4.53103e-07, No Iterations 2
time step continuity errors : sum local = 4.44987e-09, global = 1.5517e-09, cumulative = 6.14785e-06
smoothSolver:  Solving for omega, Initial residual = 9.97763e-09, Final residual = 9.97763e-09, No Iterations 0
smoothSolver:  Solving for k, Initial residual = 2.49062e-08, Final residual = 1.68817e-09, No Iterations 1
ExecutionTime = 193.2 s  ClockTime = 193 s

forces forcesFish write:
    Sum of forces
        Total    : (0.111498 -0.00217711 -0.00115123)
        Pressure : (0.0737424 -0.00215064 -0.00119372)
        Viscous  : (0.037756 -2.64723e-05 4.24872e-05)
    Sum of moments
        Total    : (2.61336e-05 0.000238219 0.000717351)
        Pressure : (2.79048e-05 0.000262025 0.00054989)
        Viscous  : (-1.7712e-06 -2.38069e-05 0.000167461)
    writing force and moment files.

Time = 222

smoothSolver:  Solving for Ux, Initial residual = 9.213e-08, Final residual = 1.90478e-09, No Iterations 2
smoothSolver:  Solving for Uy, Initial residual = 4.14941e-06, Final residual = 9.17173e-08, No Iterations 2
smoothSolver:  Solving for Uz, Initial residual = 9.98971e-06, Final residual = 2.48435e-07, No Iterations 2
GAMG:  Solving for p, Initial residual = 1.04498e-05, Final residual = 4.59156e-07, No Iterations 2
time step continuity errors : sum local = 4.50932e-09, global = 1.58817e-09, cumulative = 6.14944e-06
smoothSolver:  Solving for omega, Initial residual = 1.15838e-08, Final residual = 1.27651e-09, No Iterations 1
smoothSolver:  Solving for k, Initial residual = 2.39672e-08, Final residual = 1.67909e-09, No Iterations 1
ExecutionTime = 194.06 s  ClockTime = 194 s


SIMPLE solution converged in 222 iterations

forces forcesFish write:
    Sum of forces
        Total    : (0.111498 -0.00217442 -0.00115162)
        Pressure : (0.0737423 -0.00214792 -0.0011941)
        Viscous  : (0.037756 -2.65e-05 4.2487e-05)
    Sum of moments
        Total    : (2.61354e-05 0.00023835 0.000718153)
        Pressure : (2.79066e-05 0.000262157 0.000550705)
        Viscous  : (-1.77119e-06 -2.38073e-05 0.000167448)
    writing force and moment files.

End

