/*---------------------------------------------------------------------------*\
| =========                 |                                                 |
| \\      /  F ield         | OpenFOAM: The Open Source CFD Toolbox           |
|  \\    /   O peration     | Version:  2512                                  |
|   \\  /    A nd           | Website:  www.openfoam.com                      |
|    \\/     M anipulation  |                                                 |
\*---------------------------------------------------------------------------*/
Build  : _bd2b6720-20260127 OPENFOAM=2512 version=2512
Arch   : "LSB;label=32;scalar=64"
Exec   : simpleFoam
Date   : Mar 29 2026
Time   : 11:46:50
Host   : mathias-laptop
PID    : 12581
I/O    : uncollated
Case   : /home/mat/OpenFOAM/mat-run/speed_sweep_runs/U_0p4
nProcs : 1
trapFpe: Floating point exception trapping enabled (FOAM_SIGFPE).
memory pool : not available
fileModificationChecking : Monitoring run-time modified files using timeStampMaster (fileModificationSkew 5, maxFileModificationPolls 20)
allowSystemOperations : Allowing user-supplied system call operations

// * * * * * * * * * * * * * * * * * * * * * * * * * * * * * * * * * * * * * //
Create time

Create mesh for time = 0


SIMPLE: convergence criteria
    field p	 tolerance 0.0001
    field U	 tolerance 1e-05
    field "(k|omega)"	 tolerance 1e-05

Reading field p

Reading field U

Reading/calculating face flux field phi

Selecting incompressible transport model Newtonian
Selecting turbulence model type RAS
Selecting RAS turbulence model kOmegaSST
Selecting patchDistMethod meshWave
RAS
{
    RASModel        kOmegaSST;
    turbulence      on;
    printCoeffs     on;
    alphaK1         0.85;
    alphaK2         1;
    alphaOmega1     0.5;
    alphaOmega2     0.856;
    gamma1          0.555556;
    gamma2          0.44;
    beta1           0.075;
    beta2           0.0828;
    betaStar        0.09;
    a1              0.31;
    b1              1;
    c1              10;
    F3              false;
    decayControl    false;
    kInf            0;
    omegaInf        0;
}

No MRF models present

No finite volume options present

Starting time loop

forces forcesFish:
    rho: rhoInf
    Freestream density (rhoInf) set to 1000
    Not including porosity effects

Time = 1

smoothSolver:  Solving for Ux, Initial residual = 1, Final residual = 0.0827247, No Iterations 1
smoothSolver:  Solving for Uy, Initial residual = 1, Final residual = 0.0711605, No Iterations 2
smoothSolver:  Solving for Uz, Initial residual = 1, Final residual = 0.0713106, No Iterations 2
GAMG:  Solving for p, Initial residual = 1, Final residual = 0.0687184, No Iterations 5
time step continuity errors : sum local = 0.000328601, global = 3.61494e-05, cumulative = 3.61494e-05
smoothSolver:  Solving for omega, Initial residual = 0.0145849, Final residual = 0.000815114, No Iterations 2
smoothSolver:  Solving for k, Initial residual = 1, Final residual = 0.0258837, No Iterations 2
ExecutionTime = 4.22 s  ClockTime = 5 s

forces forcesFish write:
    Sum of forces
        Total    : (0.461875 -0.000148085 -0.000556405)
        Pressure : (0.367172 -0.000147457 -0.000555524)
        Viscous  : (0.0947036 -6.27938e-07 -8.81562e-07)
    Sum of moments
        Total    : (5.33178e-08 0.000117574 4.442e-05)
        Pressure : (5.37144e-08 0.000117135 4.48318e-05)
        Viscous  : (-3.96646e-10 4.38835e-07 -4.11712e-07)
    writing force and moment files.

Time = 2

smoothSolver:  Solving for Ux, Initial residual = 0.186976, Final residual = 0.0136385, No Iterations 2
smoothSolver:  Solving for Uy, Initial residual = 0.469575, Final residual = 0.016602, No Iterations 3
smoothSolver:  Solving for Uz, Initial residual = 0.469112, Final residual = 0.0165954, No Iterations 3
GAMG:  Solving for p, Initial residual = 0.233358, Final residual = 0.0122226, No Iterations 3
time step continuity errors : sum local = 0.000601091, global = -7.83454e-05, cumulative = -4.2196e-05
smoothSolver:  Solving for omega, Initial residual = 0.000964144, Final residual = 3.4932e-05, No Iterations 2
smoothSolver:  Solving for k, Initial residual = 0.318789, Final residual = 0.0082941, No Iterations 2
ExecutionTime = 5.49 s  ClockTime = 6 s

forces forcesFish write:
    Sum of forces
        Total    : (0.449598 -0.00023494 -0.000678761)
        Pressure : (0.364653 -0.00023562 -0.000675094)
        Viscous  : (0.0849452 6.80824e-07 -3.66628e-06)
    Sum of moments
        Total    : (5.0652e-08 0.000182367 -3.5672e-07)
        Pressure : (5.51192e-08 0.000181373 -6.41924e-08)
        Viscous  : (-4.46724e-09 9.9367e-07 -2.92527e-07)
    writing force and moment files.

Time = 3

smoothSolver:  Solving for Ux, Initial residual = 0.0311705, Final residual = 0.00216481, No Iterations 2
smoothSolver:  Solving for Uy, Initial residual = 0.29233, Final residual = 0.0096592, No Iterations 3
smoothSolver:  Solving for Uz, Initial residual = 0.290271, Final residual = 0.00961371, No Iterations 3
GAMG:  Solving for p, Initial residual = 0.416846, Final residual = 0.0376934, No Iterations 2
time step continuity errors : sum local = 0.00197798, global = -2.3261e-05, cumulative = -6.5457e-05
smoothSolver:  Solving for omega, Initial residual = 0.000600945, Final residual = 2.61464e-05, No Iterations 2
smoothSolver:  Solving for k, Initial residual = 0.235238, Final residual = 0.00632212, No Iterations 2
ExecutionTime = 6.77 s  ClockTime = 7 s

forces forcesFish write:
    Sum of forces
        Total    : (0.362382 -0.000138127 -0.000232414)
        Pressure : (0.284778 -0.000139429 -0.000228771)
        Viscous  : (0.0776039 1.30184e-06 -3.64297e-06)
    Sum of moments
        Total    : (4.81006e-08 0.000102894 2.81145e-05)
        Pressure : (5.22064e-08 0.000101784 2.85999e-05)
        Viscous  : (-4.10577e-09 1.10938e-06 -4.85472e-07)
    writing force and moment files.

Time = 4

smoothSolver:  Solving for Ux, Initial residual = 0.0163281, Final residual = 0.00106471, No Iterations 2
smoothSolver:  Solving for Uy, Initial residual = 0.180374, Final residual = 0.0172613, No Iterations 2
smoothSolver:  Solving for Uz, Initial residual = 0.179809, Final residual = 0.0172593, No Iterations 2
GAMG:  Solving for p, Initial residual = 0.481623, Final residual = 0.0288326, No Iterations 3
time step continuity errors : sum local = 0.00150436, global = 8.13927e-05, cumulative = 1.59357e-05
smoothSolver:  Solving for omega, Initial residual = 0.0004427, Final residual = 2.02456e-05, No Iterations 2
smoothSolver:  Solving for k, Initial residual = 0.180137, Final residual = 0.00491487, No Iterations 2
ExecutionTime = 8.06 s  ClockTime = 8 s

forces forcesFish write:
    Sum of forces
        Total    : (0.235027 0.00016933 0.000428127)
        Pressure : (0.162916 0.000168625 0.000430253)
        Viscous  : (0.0721113 7.05646e-07 -2.1268e-06)
    Sum of moments
        Total    : (3.41712e-08 -1.59282e-05 9.40079e-05)
        Pressure : (3.27163e-08 -1.68341e-05 9.48072e-05)
        Viscous  : (1.45496e-09 9.05914e-07 -7.99281e-07)
    writing force and moment files.

Time = 5

smoothSolver:  Solving for Ux, Initial residual = 0.00968304, Final residual = 0.000564416, No Iterations 2
smoothSolver:  Solving for Uy, Initial residual = 0.0997382, Final residual = 0.00886651, No Iterations 2
smoothSolver:  Solving for Uz, Initial residual = 0.100861, Final residual = 0.00894296, No Iterations 2
GAMG:  Solving for p, Initial residual = 0.541654, Final residual = 0.0410144, No Iterations 3
time step continuity errors : sum local = 0.00169543, global = 0.000174631, cumulative = 0.000190566
smoothSolver:  Solving for omega, Initial residual = 0.000339374, Final residual = 1.57899e-05, No Iterations 2
smoothSolver:  Solving for k, Initial residual = 0.145822, Final residual = 0.00403578, No Iterations 2
ExecutionTime = 9.4 s  ClockTime = 10 s

forces forcesFish write:
    Sum of forces
        Total    : (0.115379 0.000374607 0.000972406)
        Pressure : (0.0473978 0.000375373 0.000972351)
        Viscous  : (0.0679811 -7.6573e-07 5.51138e-08)
    Sum of moments
        Total    : (1.19062e-08 -0.000131338 0.000127981)
        Pressure : (5.00323e-09 -0.000131617 0.000128924)
        Viscous  : (6.90295e-09 2.79074e-07 -9.42242e-07)
    writing force and moment files.

Time = 6

smoothSolver:  Solving for Ux, Initial residual = 0.00621481, Final residual = 0.00027549, No Iterations 2
smoothSolver:  Solving for Uy, Initial residual = 0.0563581, Final residual = 0.00296663, No Iterations 2
smoothSolver:  Solving for Uz, Initial residual = 0.057107, Final residual = 0.00306545, No Iterations 2
GAMG:  Solving for p, Initial residual = 0.282463, Final residual = 0.0249639, No Iterations 3
time step continuity errors : sum local = 0.00144101, global = 0.000237614, cumulative = 0.00042818
smoothSolver:  Solving for omega, Initial residual = 0.000282513, Final residual = 1.22248e-05, No Iterations 2
smoothSolver:  Solving for k, Initial residual = 0.123397, Final residual = 0.00349502, No Iterations 2
ExecutionTime = 10.7 s  ClockTime = 11 s

forces forcesFish write:
    Sum of forces
        Total    : (0.025419 0.000457999 0.00115837)
        Pressure : (-0.0394338 0.000460235 0.00115704)
        Viscous  : (0.0648528 -2.23637e-06 1.32116e-06)
    Sum of moments
        Total    : (-1.23933e-08 -0.000201503 0.000120478)
        Pressure : (-2.28651e-08 -0.00020125 0.000121339)
        Viscous  : (1.04718e-08 -2.52724e-07 -8.6136e-07)
    writing force and moment files.

Time = 7

smoothSolver:  Solving for Ux, Initial residual = 0.00426133, Final residual = 0.000218912, No Iterations 2
smoothSolver:  Solving for Uy, Initial residual = 0.0745638, Final residual = 0.00575385, No Iterations 2
smoothSolver:  Solving for Uz, Initial residual = 0.0718318, Final residual = 0.00549338, No Iterations 2
GAMG:  Solving for p, Initial residual = 0.143627, Final residual = 0.011992, No Iterations 3
time step continuity errors : sum local = 0.000915035, global = 0.000167376, cumulative = 0.000595556
smoothSolver:  Solving for omega, Initial residual = 0.000258704, Final residual = 9.80002e-06, No Iterations 2
smoothSolver:  Solving for k, Initial residual = 0.10752, Final residual = 0.00316304, No Iterations 2
ExecutionTime = 11.99 s  ClockTime = 12 s

forces forcesFish write:
    Sum of forces
        Total    : (-0.0252417 0.000396447 0.000908066)
        Pressure : (-0.0876471 0.000399732 0.000906138)
        Viscous  : (0.0624054 -3.28534e-06 1.92779e-06)
    Sum of moments
        Total    : (-2.94018e-08 -0.0002091 7.23511e-05)
        Pressure : (-4.18154e-08 -0.000208287 7.30307e-05)
        Viscous  : (1.24136e-08 -8.13007e-07 -6.79626e-07)
    writing force and moment files.

Time = 8

smoothSolver:  Solving for Ux, Initial residual = 0.00423433, Final residual = 0.000254078, No Iterations 2
smoothSolver:  Solving for Uy, Initial residual = 0.118932, Final residual = 0.0105181, No Iterations 2
smoothSolver:  Solving for Uz, Initial residual = 0.114528, Final residual = 0.0101065, No Iterations 2
GAMG:  Solving for p, Initial residual = 0.117942, Final residual = 0.0109581, No Iterations 2
time step continuity errors : sum local = 0.00102717, global = 0.000220121, cumulative = 0.000815677
smoothSolver:  Solving for omega, Initial residual = 0.000236522, Final residual = 8.35402e-06, No Iterations 2
smoothSolver:  Solving for k, Initial residual = 0.0951657, Final residual = 0.00289114, No Iterations 2
ExecutionTime = 13.27 s  ClockTime = 14 s

forces forcesFish write:
    Sum of forces
        Total    : (-0.0359521 0.000342808 0.000548121)
        Pressure : (-0.096342 0.000347059 0.000546774)
        Viscous  : (0.0603899 -4.25083e-06 1.34745e-06)
    Sum of moments
        Total    : (-3.59818e-08 -0.000174813 4.85904e-05)
        Pressure : (-4.8585e-08 -0.00017384 4.89764e-05)
        Viscous  : (1.26031e-08 -9.72376e-07 -3.85998e-07)
    writing force and moment files.

Time = 9

smoothSolver:  Solving for Ux, Initial residual = 0.00435568, Final residual = 0.000264579, No Iterations 2
smoothSolver:  Solving for Uy, Initial residual = 0.137919, Final residual = 0.0124076, No Iterations 2
smoothSolver:  Solving for Uz, Initial residual = 0.135195, Final residual = 0.0120931, No Iterations 2
GAMG:  Solving for p, Initial residual = 0.144458, Final residual = 0.0123023, No Iterations 2
time step continuity errors : sum local = 0.00120083, global = 0.000275912, cumulative = 0.00109159
smoothSolver:  Solving for omega, Initial residual = 0.000204159, Final residual = 7.34774e-06, No Iterations 2
smoothSolver:  Solving for k, Initial residual = 0.0847098, Final residual = 0.00264239, No Iterations 2
ExecutionTime = 14.48 s  ClockTime = 15 s

forces forcesFish write:
    Sum of forces
        Total    : (-0.0217277 0.000258686 4.16177e-05)
        Pressure : (-0.0803234 0.000262483 4.13857e-05)
        Viscous  : (0.0585957 -3.79639e-06 2.32e-07)
    Sum of moments
        Total    : (-3.52748e-08 -9.90205e-05 1.33517e-05)
        Pressure : (-4.62972e-08 -9.8178e-05 1.34588e-05)
        Viscous  : (1.10223e-08 -8.42496e-07 -1.07119e-07)
    writing force and moment files.

Time = 10

smoothSolver:  Solving for Ux, Initial residual = 0.00393293, Final residual = 0.000232729, No Iterations 2
smoothSolver:  Solving for Uy, Initial residual = 0.124825, Final residual = 0.0111603, No Iterations 2
smoothSolver:  Solving for Uz, Initial residual = 0.126867, Final residual = 0.0111864, No Iterations 2
GAMG:  Solving for p, Initial residual = 0.159516, Final residual = 0.015739, No Iterations 2
time step continuity errors : sum local = 0.0014992, global = 0.000234375, cumulative = 0.00132596
smoothSolver:  Solving for omega, Initial residual = 0.000172288, Final residual = 6.56746e-06, No Iterations 2
smoothSolver:  Solving for k, Initial residual = 0.0754541, Final residual = 0.00240959, No Iterations 2
ExecutionTime = 15.8 s  ClockTime = 16 s

forces forcesFish write:
    Sum of forces
        Total    : (0.00531947 0.000151412 -0.000530649)
        Pressure : (-0.0515792 0.000154661 -0.000528773)
        Viscous  : (0.0568987 -3.24884e-06 -1.87628e-06)
    Sum of moments
        Total    : (-2.66415e-08 -7.28638e-07 -2.65449e-05)
        Pressure : (-3.59602e-08 -4.15945e-07 -2.64017e-05)
        Viscous  : (9.31875e-09 -3.12693e-07 -1.43141e-07)
    writing force and moment files.

Time = 11

smoothSolver:  Solving for Ux, Initial residual = 0.0032449, Final residual = 0.000180874, No Iterations 2
smoothSolver:  Solving for Uy, Initial residual = 0.0895975, Final residual = 0.00766728, No Iterations 2
smoothSolver:  Solving for Uz, Initial residual = 0.0963209, Final residual = 0.00809821, No Iterations 2
GAMG:  Solving for p, Initial residual = 0.156514, Final residual = 0.00764131, No Iterations 3
time step continuity errors : sum local = 0.000678848, global = 0.000101701, cumulative = 0.00142766
smoothSolver:  Solving for omega, Initial residual = 0.000149793, Final residual = 5.90809e-06, No Iterations 2
smoothSolver:  Solving for k, Initial residual = 0.0672491, Final residual = 0.00219584, No Iterations 2
ExecutionTime = 17.09 s  ClockTime = 17 s

forces forcesFish write:
    Sum of forces
        Total    : (0.038143 -8.87769e-05 -0.000911065)
        Pressure : (-0.0171084 -8.64954e-05 -0.000907215)
        Viscous  : (0.0552515 -2.28147e-06 -3.85017e-06)
    Sum of moments
        Total    : (-1.11479e-08 8.78251e-05 -7.6682e-05)
        Pressure : (-1.89289e-08 8.75206e-05 -7.64634e-05)
        Viscous  : (7.78104e-09 3.04477e-07 -2.18668e-07)
    writing force and moment files.

Time = 12

smoothSolver:  Solving for Ux, Initial residual = 0.00277177, Final residual = 0.000125151, No Iterations 2
smoothSolver:  Solving for Uy, Initial residual = 0.0555051, Final residual = 0.00337968, No Iterations 2
smoothSolver:  Solving for Uz, Initial residual = 0.0604955, Final residual = 0.00370072, No Iterations 2
GAMG:  Solving for p, Initial residual = 0.138618, Final residual = 0.00723803, No Iterations 3
time step continuity errors : sum local = 0.000564651, global = -4.44849e-06, cumulative = 0.00142322
smoothSolver:  Solving for omega, Initial residual = 0.000133769, Final residual = 5.34328e-06, No Iterations 2
smoothSolver:  Solving for k, Initial residual = 0.0600907, Final residual = 0.00200074, No Iterations 2
ExecutionTime = 18.4 s  ClockTime = 19 s

forces forcesFish write:
    Sum of forces
        Total    : (0.0655035 -0.000279742 -0.000977788)
        Pressure : (0.0118546 -0.000278878 -0.000973168)
        Viscous  : (0.0536489 -8.63987e-07 -4.61952e-06)
    Sum of moments
        Total    : (3.88808e-09 0.000136831 -9.99682e-05)
        Pressure : (-2.59336e-09 0.000136124 -9.97293e-05)
        Viscous  : (6.48144e-09 7.07231e-07 -2.38874e-07)
    writing force and moment files.

Time = 13

smoothSolver:  Solving for Ux, Initial residual = 0.0024173, Final residual = 0.000103291, No Iterations 2
smoothSolver:  Solving for Uy, Initial residual = 0.0593428, Final residual = 0.00375538, No Iterations 2
smoothSolver:  Solving for Uz, Initial residual = 0.061661, Final residual = 0.00378532, No Iterations 2
GAMG:  Solving for p, Initial residual = 0.116552, Final residual = 0.00605237, No Iterations 3
time step continuity errors : sum local = 0.00040664, global = -7.04899e-05, cumulative = 0.00135273
smoothSolver:  Solving for omega, Initial residual = 0.000123494, Final residual = 4.8869e-06, No Iterations 2
smoothSolver:  Solving for k, Initial residual = 0.0537906, Final residual = 0.00182138, No Iterations 2
ExecutionTime = 19.67 s  ClockTime = 20 s

forces forcesFish write:
    Sum of forces
        Total    : (0.0829816 -0.000387425 -0.00074352)
        Pressure : (0.0308492 -0.000387958 -0.000739165)
        Viscous  : (0.0521324 5.33713e-07 -4.355e-06)
    Sum of moments
        Total    : (1.53789e-08 0.000140986 -9.48841e-05)
        Pressure : (9.75322e-09 0.000140052 -9.46653e-05)
        Viscous  : (5.62565e-09 9.33474e-07 -2.18851e-07)
    writing force and moment files.

Time = 14

smoothSolver:  Solving for Ux, Initial residual = 0.00195023, Final residual = 9.08351e-05, No Iterations 2
smoothSolver:  Solving for Uy, Initial residual = 0.0673954, Final residual = 0.0049922, No Iterations 2
smoothSolver:  Solving for Uz, Initial residual = 0.0702257, Final residual = 0.00506336, No Iterations 2
GAMG:  Solving for p, Initial residual = 0.125867, Final residual = 0.0100135, No Iterations 2
time step continuity errors : sum local = 0.000566219, global = -0.000107977, cumulative = 0.00124475
smoothSolver:  Solving for omega, Initial residual = 0.000113094, Final residual = 4.44535e-06, No Iterations 2
smoothSolver:  Solving for k, Initial residual = 0.0482501, Final residual = 0.00165869, No Iterations 2
ExecutionTime = 20.95 s  ClockTime = 21 s

forces forcesFish write:
    Sum of forces
        Total    : (0.0890325 -0.000410812 -0.000450785)
        Pressure : (0.0382955 -0.000412242 -0.000447111)
        Viscous  : (0.050737 1.42935e-06 -3.67407e-06)
    Sum of moments
        Total    : (2.17159e-08 0.000119104 -8.28748e-05)
        Pressure : (1.66291e-08 0.000118044 -8.26455e-05)
        Viscous  : (5.0868e-09 1.06025e-06 -2.2932e-07)
    writing force and moment files.

Time = 15

smoothSolver:  Solving for Ux, Initial residual = 0.00169805, Final residual = 8.29435e-05, No Iterations 2
smoothSolver:  Solving for Uy, Initial residual = 0.0635755, Final residual = 0.00488382, No Iterations 2
smoothSolver:  Solving for Uz, Initial residual = 0.0679808, Final residual = 0.00508975, No Iterations 2
GAMG:  Solving for p, Initial residual = 0.158563, Final residual = 0.0110432, No Iterations 2
time step continuity errors : sum local = 0.00055827, global = -0.000112929, cumulative = 0.00113182
smoothSolver:  Solving for omega, Initial residual = 0.000101966, Final residual = 4.10564e-06, No Iterations 2
smoothSolver:  Solving for k, Initial residual = 0.0433541, Final residual = 0.00151331, No Iterations 2
ExecutionTime = 22.18 s  ClockTime = 23 s

forces forcesFish write:
    Sum of forces
        Total    : (0.0869906 -0.000387882 -7.22506e-05)
        Pressure : (0.0374949 -0.00038945 -6.96848e-05)
        Viscous  : (0.0494957 1.56706e-06 -2.56585e-06)
    Sum of moments
        Total    : (2.35271e-08 7.54267e-05 -6.05281e-05)
        Pressure : (1.84063e-08 7.44237e-05 -6.02456e-05)
        Viscous  : (5.12079e-09 1.00301e-06 -2.82435e-07)
    writing force and moment files.

Time = 16

smoothSolver:  Solving for Ux, Initial residual = 0.00144512, Final residual = 7.3388e-05, No Iterations 2
smoothSolver:  Solving for Uy, Initial residual = 0.0503516, Final residual = 0.00384874, No Iterations 2
smoothSolver:  Solving for Uz, Initial residual = 0.055533, Final residual = 0.00414634, No Iterations 2
GAMG:  Solving for p, Initial residual = 0.17681, Final residual = 0.0149156, No Iterations 2
time step continuity errors : sum local = 0.000713553, global = -0.000187571, cumulative = 0.000944248
smoothSolver:  Solving for omega, Initial residual = 9.04121e-05, Final residual = 3.8015e-06, No Iterations 2
smoothSolver:  Solving for k, Initial residual = 0.0390761, Final residual = 0.00138678, No Iterations 2
ExecutionTime = 23.43 s  ClockTime = 24 s

forces forcesFish write:
    Sum of forces
        Total    : (0.0802154 -0.000309625 0.00025267)
        Pressure : (0.0317999 -0.000310716 0.000254017)
        Viscous  : (0.0484155 1.09081e-06 -1.34691e-06)
    Sum of moments
        Total    : (2.11162e-08 2.69737e-05 -3.30981e-05)
        Pressure : (1.558e-08 2.6147e-05 -3.27442e-05)
        Viscous  : (5.53617e-09 8.26672e-07 -3.53891e-07)
    writing force and moment files.

Time = 17

smoothSolver:  Solving for Ux, Initial residual = 0.00119198, Final residual = 6.2429e-05, No Iterations 2
smoothSolver:  Solving for Uy, Initial residual = 0.0350591, Final residual = 0.00253449, No Iterations 2
smoothSolver:  Solving for Uz, Initial residual = 0.039745, Final residual = 0.00284917, No Iterations 2
GAMG:  Solving for p, Initial residual = 0.164025, Final residual = 0.0158025, No Iterations 2
time step continuity errors : sum local = 0.00075961, global = -0.000196062, cumulative = 0.000748186
smoothSolver:  Solving for omega, Initial residual = 7.93282e-05, Final residual = 3.46854e-06, No Iterations 2
smoothSolver:  Solving for k, Initial residual = 0.0353728, Final residual = 0.00127773, No Iterations 2
ExecutionTime = 24.69 s  ClockTime = 25 s

forces forcesFish write:
    Sum of forces
        Total    : (0.0715462 -0.000192206 0.000485569)
        Pressure : (0.0240654 -0.000192485 0.000485811)
        Viscous  : (0.0474808 2.79721e-07 -2.41927e-07)
    Sum of moments
        Total    : (1.55902e-08 -1.87753e-05 -4.58649e-06)
        Pressure : (9.64947e-09 -1.9358e-05 -4.17871e-06)
        Viscous  : (5.94075e-09 5.82676e-07 -4.07781e-07)
    writing force and moment files.

Time = 18

smoothSolver:  Solving for Ux, Initial residual = 0.000971555, Final residual = 5.10615e-05, No Iterations 2
smoothSolver:  Solving for Uy, Initial residual = 0.0243904, Final residual = 0.00138803, No Iterations 2
smoothSolver:  Solving for Uz, Initial residual = 0.027674, Final residual = 0.00161419, No Iterations 2
GAMG:  Solving for p, Initial residual = 0.134475, Final residual = 0.00609349, No Iterations 3
time step continuity errors : sum local = 0.000301922, global = -6.52967e-05, cumulative = 0.000682889
smoothSolver:  Solving for omega, Initial residual = 7.0779e-05, Final residual = 3.13935e-06, No Iterations 2
smoothSolver:  Solving for k, Initial residual = 0.0321571, Final residual = 0.00118284, No Iterations 2
ExecutionTime = 25.96 s  ClockTime = 26 s

forces forcesFish write:
    Sum of forces
        Total    : (0.0624653 3.62008e-05 0.000539759)
        Pressure : (0.0157982 3.66594e-05 0.000539308)
        Viscous  : (0.0466671 -4.58646e-07 4.50747e-07)
    Sum of moments
        Total    : (7.61285e-09 -5.54205e-05 3.43519e-05)
        Pressure : (1.71337e-09 -5.57511e-05 3.47497e-05)
        Viscous  : (5.89948e-09 3.30575e-07 -3.97885e-07)
    writing force and moment files.

Time = 19

smoothSolver:  Solving for Ux, Initial residual = 0.000996389, Final residual = 4.60947e-05, No Iterations 2
smoothSolver:  Solving for Uy, Initial residual = 0.0220097, Final residual = 0.00118659, No Iterations 2
smoothSolver:  Solving for Uz, Initial residual = 0.023635, Final residual = 0.00120733, No Iterations 2
GAMG:  Solving for p, Initial residual = 0.102288, Final residual = 0.00941165, No Iterations 2
time step continuity errors : sum local = 0.000466582, global = -0.000106643, cumulative = 0.000576247
smoothSolver:  Solving for omega, Initial residual = 6.53039e-05, Final residual = 2.90599e-06, No Iterations 2
smoothSolver:  Solving for k, Initial residual = 0.0292882, Final residual = 0.0010977, No Iterations 2
ExecutionTime = 27.21 s  ClockTime = 28 s

forces forcesFish write:
    Sum of forces
        Total    : (0.0560875 0.00014601 0.000494269)
        Pressure : (0.0101299 0.000147093 0.000493551)
        Viscous  : (0.0459576 -1.08289e-06 7.17824e-07)
    Sum of moments
        Total    : (8.71487e-10 -7.21807e-05 4.84386e-05)
        Pressure : (-4.66552e-09 -7.23016e-05 4.87971e-05)
        Viscous  : (5.537e-09 1.20852e-07 -3.58459e-07)
    writing force and moment files.

Time = 20

smoothSolver:  Solving for Ux, Initial residual = 0.000984119, Final residual = 4.2993e-05, No Iterations 2
smoothSolver:  Solving for Uy, Initial residual = 0.0248404, Final residual = 0.0015646, No Iterations 2
smoothSolver:  Solving for Uz, Initial residual = 0.0264064, Final residual = 0.00158491, No Iterations 2
GAMG:  Solving for p, Initial residual = 0.0800555, Final residual = 0.00594588, No Iterations 2
time step continuity errors : sum local = 0.000297802, global = -4.90346e-05, cumulative = 0.000527212
smoothSolver:  Solving for omega, Initial residual = 5.99351e-05, Final residual = 2.68451e-06, No Iterations 2
smoothSolver:  Solving for k, Initial residual = 0.026765, Final residual = 0.00102158, No Iterations 2
ExecutionTime = 28.51 s  ClockTime = 29 s

forces forcesFish write:
    Sum of forces
        Total    : (0.051949 0.000230691 0.00034437)
        Pressure : (0.00663678 0.000232171 0.000343751)
        Viscous  : (0.0453122 -1.48068e-06 6.19582e-07)
    Sum of moments
        Total    : (-4.54745e-09 -7.30019e-05 5.40966e-05)
        Pressure : (-9.55811e-09 -7.29731e-05 5.44025e-05)
        Viscous  : (5.01067e-09 -2.8796e-08 -3.05909e-07)
    writing force and moment files.

Time = 21

smoothSolver:  Solving for Ux, Initial residual = 0.000928075, Final residual = 4.04624e-05, No Iterations 2
smoothSolver:  Solving for Uy, Initial residual = 0.0253821, Final residual = 0.00172962, No Iterations 2
smoothSolver:  Solving for Uz, Initial residual = 0.0273399, Final residual = 0.00178222, No Iterations 2
GAMG:  Solving for p, Initial residual = 0.0807815, Final residual = 0.00476985, No Iterations 2
time step continuity errors : sum local = 0.000237531, global = 5.10142e-06, cumulative = 0.000532314
smoothSolver:  Solving for omega, Initial residual = 5.46853e-05, Final residual = 2.48393e-06, No Iterations 2
smoothSolver:  Solving for k, Initial residual = 0.0245085, Final residual = 0.000952329, No Iterations 2
ExecutionTime = 29.78 s  ClockTime = 30 s

forces forcesFish write:
    Sum of forces
        Total    : (0.0499716 0.000275899 0.000147207)
        Pressure : (0.00525805 0.000277474 0.000146968)
        Viscous  : (0.0447135 -1.57493e-06 2.38369e-07)
    Sum of moments
        Total    : (-8.06433e-09 -6.16741e-05 5.16898e-05)
        Pressure : (-1.25039e-08 -6.15653e-05 5.19337e-05)
        Viscous  : (4.43954e-09 -1.08723e-07 -2.43893e-07)
    writing force and moment files.

Time = 22

smoothSolver:  Solving for Ux, Initial residual = 0.000822014, Final residual = 3.68031e-05, No Iterations 2
smoothSolver:  Solving for Uy, Initial residual = 0.0230634, Final residual = 0.00159308, No Iterations 2
smoothSolver:  Solving for Uz, Initial residual = 0.025437, Final residual = 0.00169705, No Iterations 2
GAMG:  Solving for p, Initial residual = 0.0876561, Final residual = 0.00536554, No Iterations 2
time step continuity errors : sum local = 0.00026333, global = 4.07198e-05, cumulative = 0.000573033
smoothSolver:  Solving for omega, Initial residual = 4.94525e-05, Final residual = 2.29641e-06, No Iterations 2
smoothSolver:  Solving for k, Initial residual = 0.0224727, Final residual = 0.000888632, No Iterations 2
ExecutionTime = 31 s  ClockTime = 31 s

forces forcesFish write:
    Sum of forces
        Total    : (0.0496063 0.00027715 -4.50197e-05)
        Pressure : (0.00546214 0.000278556 -4.47223e-05)
        Viscous  : (0.0441441 -1.406e-06 -2.97375e-07)
    Sum of moments
        Total    : (-9.41162e-09 -4.31453e-05 4.24588e-05)
        Pressure : (-1.34744e-08 -4.30189e-05 4.26435e-05)
        Viscous  : (4.06274e-09 -1.26374e-07 -1.84744e-07)
    writing force and moment files.

Time = 23

smoothSolver:  Solving for Ux, Initial residual = 0.000684653, Final residual = 3.18144e-05, No Iterations 2
smoothSolver:  Solving for Uy, Initial residual = 0.0189212, Final residual = 0.00125127, No Iterations 2
smoothSolver:  Solving for Uz, Initial residual = 0.0215164, Final residual = 0.00139303, No Iterations 2
GAMG:  Solving for p, Initial residual = 0.0863879, Final residual = 0.00601303, No Iterations 2
time step continuity errors : sum local = 0.000292059, global = 5.92242e-05, cumulative = 0.000632257
smoothSolver:  Solving for omega, Initial residual = 4.46059e-05, Final residual = 2.11692e-06, No Iterations 2
smoothSolver:  Solving for k, Initial residual = 0.0206446, Final residual = 0.000830409, No Iterations 2
ExecutionTime = 32.25 s  ClockTime = 33 s

forces forcesFish write:
    Sum of forces
        Total    : (0.0502032 0.000233779 -0.000192881)
        Pressure : (0.00660902 0.000234854 -0.000192044)
        Viscous  : (0.0435942 -1.07488e-06 -8.36304e-07)
    Sum of moments
        Total    : (-8.77342e-09 -2.15775e-05 2.78869e-05)
        Pressure : (-1.27333e-08 -2.1477e-05 2.80276e-05)
        Viscous  : (3.95989e-09 -1.00591e-07 -1.40715e-07)
    writing force and moment files.

Time = 24

smoothSolver:  Solving for Ux, Initial residual = 0.000574283, Final residual = 2.78416e-05, No Iterations 2
smoothSolver:  Solving for Uy, Initial residual = 0.0149556, Final residual = 0.000879124, No Iterations 2
smoothSolver:  Solving for Uz, Initial residual = 0.0172043, Final residual = 0.00100687, No Iterations 2
GAMG:  Solving for p, Initial residual = 0.0786343, Final residual = 0.00601484, No Iterations 2
time step continuity errors : sum local = 0.000291538, global = 5.69298e-05, cumulative = 0.000689187
smoothSolver:  Solving for omega, Initial residual = 4.06815e-05, Final residual = 1.9469e-06, No Iterations 2
smoothSolver:  Solving for k, Initial residual = 0.0189842, Final residual = 0.000776433, No Iterations 2
ExecutionTime = 33.49 s  ClockTime = 34 s

forces forcesFish write:
    Sum of forces
        Total    : (0.0511848 0.000150428 -0.000267502)
        Pressure : (0.00812803 0.000151135 -0.000266258)
        Viscous  : (0.0430568 -7.0673e-07 -1.24442e-06)
    Sum of moments
        Total    : (-6.65127e-09 -1.1022e-06 1.00472e-05)
        Pressure : (-1.0792e-08 -1.05208e-06 1.01679e-05)
        Viscous  : (4.14076e-09 -5.01248e-08 -1.20705e-07)
    writing force and moment files.

Time = 25

smoothSolver:  Solving for Ux, Initial residual = 0.000469283, Final residual = 2.4524e-05, No Iterations 2
smoothSolver:  Solving for Uy, Initial residual = 0.0125366, Final residual = 0.000667589, No Iterations 2
smoothSolver:  Solving for Uz, Initial residual = 0.0143051, Final residual = 0.000747184, No Iterations 2
GAMG:  Solving for p, Initial residual = 0.0673694, Final residual = 0.00523766, No Iterations 2
time step continuity errors : sum local = 0.000256383, global = 3.81628e-05, cumulative = 0.00072735
smoothSolver:  Solving for omega, Initial residual = 3.74225e-05, Final residual = 1.78974e-06, No Iterations 2
smoothSolver:  Solving for k, Initial residual = 0.0174717, Final residual = 0.000726203, No Iterations 2
ExecutionTime = 34.74 s  ClockTime = 35 s

forces forcesFish write:
    Sum of forces
        Total    : (0.0521125 4.09582e-05 -0.000260041)
        Pressure : (0.00958202 4.13744e-05 -0.000258608)
        Viscous  : (0.0425305 -4.16192e-07 -1.43331e-06)
    Sum of moments
        Total    : (-3.72367e-09 1.49121e-05 -8.23991e-06)
        Pressure : (-8.25892e-09 1.49042e-05 -8.11307e-06)
        Viscous  : (4.53525e-09 7.92725e-09 -1.26844e-07)
    writing force and moment files.

Time = 26

smoothSolver:  Solving for Ux, Initial residual = 0.000407662, Final residual = 2.24406e-05, No Iterations 2
smoothSolver:  Solving for Uy, Initial residual = 0.0112897, Final residual = 0.000613455, No Iterations 2
smoothSolver:  Solving for Uz, Initial residual = 0.0126381, Final residual = 0.000645991, No Iterations 2
GAMG:  Solving for p, Initial residual = 0.0545104, Final residual = 0.00402172, No Iterations 2
time step continuity errors : sum local = 0.000201414, global = 2.05004e-05, cumulative = 0.000747851
smoothSolver:  Solving for omega, Initial residual = 3.44474e-05, Final residual = 1.64529e-06, No Iterations 2
smoothSolver:  Solving for k, Initial residual = 0.0160952, Final residual = 0.000679563, No Iterations 2
ExecutionTime = 35.98 s  ClockTime = 36 s

forces forcesFish write:
    Sum of forces
        Total    : (0.0527161 -6.88998e-05 -0.000187026)
        Pressure : (0.0106979 -6.86296e-05 -0.000185644)
        Viscous  : (0.0420182 -2.70145e-07 -1.38179e-06)
    Sum of moments
        Total    : (-7.09942e-10 2.44513e-05 -2.32694e-05)
        Pressure : (-5.71505e-09 2.43904e-05 -2.31154e-05)
        Viscous  : (5.00511e-09 6.09581e-08 -1.54024e-07)
    writing force and moment files.

Time = 27

smoothSolver:  Solving for Ux, Initial residual = 0.000423604, Final residual = 2.22941e-05, No Iterations 2
smoothSolver:  Solving for Uy, Initial residual = 0.0105993, Final residual = 0.000614308, No Iterations 2
smoothSolver:  Solving for Uz, Initial residual = 0.0114985, Final residual = 0.000635728, No Iterations 2
GAMG:  Solving for p, Initial residual = 0.0438683, Final residual = 0.00269989, No Iterations 2
time step continuity errors : sum local = 0.000138917, global = 2.93589e-05, cumulative = 0.000777209
smoothSolver:  Solving for omega, Initial residual = 3.16187e-05, Final residual = 1.51293e-06, No Iterations 2
smoothSolver:  Solving for k, Initial residual = 0.0148287, Final residual = 0.000635739, No Iterations 2
ExecutionTime = 37.21 s  ClockTime = 38 s

forces forcesFish write:
    Sum of forces
        Total    : (0.0528736 -0.000145358 -8.97263e-05)
        Pressure : (0.0113486 -0.000145089 -8.85795e-05)
        Viscous  : (0.0415251 -2.68994e-07 -1.14679e-06)
    Sum of moments
        Total    : (1.7956e-09 2.74298e-05 -3.12615e-05)
        Pressure : (-3.5974e-09 2.7329e-05 -3.10725e-05)
        Viscous  : (5.39299e-09 1.00776e-07 -1.89004e-07)
    writing force and moment files.

Time = 28

smoothSolver:  Solving for Ux, Initial residual = 0.000431175, Final residual = 2.22112e-05, No Iterations 2
smoothSolver:  Solving for Uy, Initial residual = 0.00963369, Final residual = 0.000548995, No Iterations 2
smoothSolver:  Solving for Uz, Initial residual = 0.0105571, Final residual = 0.000593478, No Iterations 2
GAMG:  Solving for p, Initial residual = 0.0373403, Final residual = 0.00215897, No Iterations 2
time step continuity errors : sum local = 0.000112991, global = 2.94706e-05, cumulative = 0.00080668
smoothSolver:  Solving for omega, Initial residual = 2.89175e-05, Final residual = 1.39367e-06, No Iterations 2
smoothSolver:  Solving for k, Initial residual = 0.0136664, Final residual = 0.000594895, No Iterations 2
ExecutionTime = 38.42 s  ClockTime = 39 s

forces forcesFish write:
    Sum of forces
        Total    : (0.0526028 -0.000173673 -8.42834e-06)
        Pressure : (0.011548 -0.000173303 -7.59407e-06)
        Viscous  : (0.0410548 -3.69582e-07 -8.34264e-07)
    Sum of moments
        Total    : (3.42877e-09 2.54846e-05 -3.17623e-05)
        Pressure : (-2.14913e-09 2.53612e-05 -3.15403e-05)
        Viscous  : (5.5779e-09 1.23317e-07 -2.22005e-07)
    writing force and moment files.

Time = 29

smoothSolver:  Solving for Ux, Initial residual = 0.000408558, Final residual = 2.12488e-05, No Iterations 2
smoothSolver:  Solving for Uy, Initial residual = 0.00831337, Final residual = 0.000436302, No Iterations 2
smoothSolver:  Solving for Uz, Initial residual = 0.00935281, Final residual = 0.000491697, No Iterations 2
GAMG:  Solving for p, Initial residual = 0.0344213, Final residual = 0.00211065, No Iterations 2
time step continuity errors : sum local = 0.000111376, global = 1.95085e-06, cumulative = 0.000808631
smoothSolver:  Solving for omega, Initial residual = 2.63667e-05, Final residual = 1.28309e-06, No Iterations 2
smoothSolver:  Solving for k, Initial residual = 0.012597, Final residual = 0.000556822, No Iterations 2
ExecutionTime = 39.66 s  ClockTime = 40 s

forces forcesFish write:
    Sum of forces
        Total    : (0.0520592 -0.000168652 5.31743e-05)
        Pressure : (0.0114524 -0.00016812 5.36961e-05)
        Viscous  : (0.0406068 -5.3283e-07 -5.21737e-07)
    Sum of moments
        Total    : (4.04029e-09 2.06535e-05 -2.72545e-05)
        Pressure : (-1.45355e-09 2.05234e-05 -2.70062e-05)
        Viscous  : (5.49384e-09 1.3015e-07 -2.48298e-07)
    writing force and moment files.

Time = 30

smoothSolver:  Solving for Ux, Initial residual = 0.000371559, Final residual = 1.98579e-05, No Iterations 2
smoothSolver:  Solving for Uy, Initial residual = 0.00689073, Final residual = 0.000318069, No Iterations 2
smoothSolver:  Solving for Uz, Initial residual = 0.00796003, Final residual = 0.000366083, No Iterations 2
GAMG:  Solving for p, Initial residual = 0.0322218, Final residual = 0.00184637, No Iterations 2
time step continuity errors : sum local = 9.80901e-05, global = -1.0434e-05, cumulative = 0.000798197
smoothSolver:  Solving for omega, Initial residual = 2.40267e-05, Final residual = 1.18221e-06, No Iterations 2
smoothSolver:  Solving for k, Initial residual = 0.0116027, Final residual = 0.000520931, No Iterations 2
ExecutionTime = 40.92 s  ClockTime = 41 s

forces forcesFish write:
    Sum of forces
        Total    : (0.0513817 -0.000134885 8.97026e-05)
        Pressure : (0.0112003 -0.000134181 8.99711e-05)
        Viscous  : (0.0401814 -7.04558e-07 -2.68498e-07)
    Sum of moments
        Total    : (3.69621e-09 1.41428e-05 -1.85905e-05)
        Pressure : (-1.46431e-09 1.40163e-05 -1.83289e-05)
        Viscous  : (5.16053e-09 1.26558e-07 -2.61579e-07)
    writing force and moment files.

Time = 31

smoothSolver:  Solving for Ux, Initial residual = 0.00031969, Final residual = 1.80781e-05, No Iterations 2
smoothSolver:  Solving for Uy, Initial residual = 0.00585522, Final residual = 0.000248606, No Iterations 2
smoothSolver:  Solving for Uz, Initial residual = 0.00684126, Final residual = 0.000276875, No Iterations 2
GAMG:  Solving for p, Initial residual = 0.0293252, Final residual = 0.00188177, No Iterations 2
time step continuity errors : sum local = 9.99068e-05, global = 2.48736e-06, cumulative = 0.000800684
smoothSolver:  Solving for omega, Initial residual = 2.19628e-05, Final residual = 1.09088e-06, No Iterations 2
smoothSolver:  Solving for k, Initial residual = 0.0106848, Final residual = 0.00048747, No Iterations 2
ExecutionTime = 42.16 s  ClockTime = 43 s

forces forcesFish write:
    Sum of forces
        Total    : (0.0506747 -7.44373e-05 9.34875e-05)
        Pressure : (0.0108961 -7.36138e-05 9.36075e-05)
        Viscous  : (0.0397786 -8.23475e-07 -1.19925e-07)
    Sum of moments
        Total    : (2.649e-09 6.97482e-06 -6.72726e-06)
        Pressure : (-2.0128e-09 6.859e-06 -6.47007e-06)
        Viscous  : (4.6618e-09 1.15813e-07 -2.57196e-07)
    writing force and moment files.

Time = 32

smoothSolver:  Solving for Ux, Initial residual = 0.000266551, Final residual = 1.64216e-05, No Iterations 2
smoothSolver:  Solving for Uy, Initial residual = 0.0053779, Final residual = 0.000252421, No Iterations 2
smoothSolver:  Solving for Uz, Initial residual = 0.00625687, Final residual = 0.000266767, No Iterations 2
GAMG:  Solving for p, Initial residual = 0.0268424, Final residual = 0.00191742, No Iterations 2
time step continuity errors : sum local = 0.000100146, global = 1.80317e-05, cumulative = 0.000818716
smoothSolver:  Solving for omega, Initial residual = 2.01936e-05, Final residual = 1.00901e-06, No Iterations 2
smoothSolver:  Solving for k, Initial residual = 0.00983576, Final residual = 0.000456278, No Iterations 2
ExecutionTime = 43.45 s  ClockTime = 44 s

forces forcesFish write:
    Sum of forces
        Total    : (0.049999 -2.19187e-06 6.68757e-05)
        Pressure : (0.0106033 -1.33775e-06 6.69691e-05)
        Viscous  : (0.0393957 -8.54116e-07 -9.33722e-08)
    Sum of moments
        Total    : (1.25765e-09 4.62819e-07 5.32728e-06)
        Pressure : (-2.8546e-09 3.62417e-07 5.56394e-06)
        Viscous  : (4.11224e-09 1.00402e-07 -2.36668e-07)
    writing force and moment files.

Time = 33

smoothSolver:  Solving for Ux, Initial residual = 0.000250032, Final residual = 1.53793e-05, No Iterations 2
smoothSolver:  Solving for Uy, Initial residual = 0.00501177, Final residual = 0.000263223, No Iterations 2
smoothSolver:  Solving for Uz, Initial residual = 0.00583785, Final residual = 0.000283607, No Iterations 2
GAMG:  Solving for p, Initial residual = 0.0251539, Final residual = 0.001642, No Iterations 2
time step continuity errors : sum local = 8.34185e-05, global = 1.44504e-05, cumulative = 0.000833166
smoothSolver:  Solving for omega, Initial residual = 1.86003e-05, Final residual = 9.34813e-07, No Iterations 2
smoothSolver:  Solving for k, Initial residual = 0.00904633, Final residual = 0.000427087, No Iterations 2
ExecutionTime = 44.68 s  ClockTime = 45 s

forces forcesFish write:
    Sum of forces
        Total    : (0.04939 5.67441e-05 2.71698e-05)
        Pressure : (0.0103614 5.75529e-05 2.73357e-05)
        Viscous  : (0.0390286 -8.08787e-07 -1.65898e-07)
    Sum of moments
        Total    : (-1.29273e-10 -4.33583e-06 1.39654e-05)
        Pressure : (-3.75579e-09 -4.41838e-06 1.41729e-05)
        Viscous  : (3.62652e-09 8.25484e-08 -2.07506e-07)
    writing force and moment files.

Time = 34

smoothSolver:  Solving for Ux, Initial residual = 0.000245286, Final residual = 1.47046e-05, No Iterations 2
smoothSolver:  Solving for Uy, Initial residual = 0.00443775, Final residual = 0.000238743, No Iterations 2
smoothSolver:  Solving for Uz, Initial residual = 0.00516676, Final residual = 0.000269199, No Iterations 2
GAMG:  Solving for p, Initial residual = 0.023423, Final residual = 0.00106489, No Iterations 2
time step continuity errors : sum local = 5.28078e-05, global = -1.34552e-05, cumulative = 0.000819711
smoothSolver:  Solving for omega, Initial residual = 1.71188e-05, Final residual = 8.65455e-07, No Iterations 2
smoothSolver:  Solving for k, Initial residual = 0.00831545, Final residual = 0.000399933, No Iterations 2
ExecutionTime = 45.88 s  ClockTime = 46 s

forces forcesFish write:
    Sum of forces
        Total    : (0.0488801 8.42688e-05 -5.13721e-06)
        Pressure : (0.0102061 8.50005e-05 -4.85e-06)
        Viscous  : (0.0386739 -7.31757e-07 -2.87204e-07)
    Sum of moments
        Total    : (-1.24951e-09 -6.83426e-06 1.69468e-05)
        Pressure : (-4.55608e-09 -6.89941e-06 1.71259e-05)
        Viscous  : (3.30656e-09 6.51527e-08 -1.7908e-07)
    writing force and moment files.

Time = 35

smoothSolver:  Solving for Ux, Initial residual = 0.00022985, Final residual = 1.40295e-05, No Iterations 2
smoothSolver:  Solving for Uy, Initial residual = 0.00385925, Final residual = 0.00019449, No Iterations 2
smoothSolver:  Solving for Uz, Initial residual = 0.00442209, Final residual = 0.000228179, No Iterations 2
GAMG:  Solving for p, Initial residual = 0.0212333, Final residual = 0.00104384, No Iterations 2
time step continuity errors : sum local = 5.12305e-05, global = -1.37558e-05, cumulative = 0.000805955
smoothSolver:  Solving for omega, Initial residual = 1.57426e-05, Final residual = 8.01314e-07, No Iterations 2
smoothSolver:  Solving for k, Initial residual = 0.0076375, Final residual = 0.000374537, No Iterations 2
ExecutionTime = 47.18 s  ClockTime = 48 s

forces forcesFish write:
    Sum of forces
        Total    : (0.0484704 8.59533e-05 -2.38498e-05)
        Pressure : (0.01014 8.66046e-05 -2.34366e-05)
        Viscous  : (0.0383304 -6.51349e-07 -4.13291e-07)
    Sum of moments
        Total    : (-1.95093e-09 -7.40042e-06 1.57569e-05)
        Pressure : (-5.14103e-09 -7.45124e-06 1.59132e-05)
        Viscous  : (3.1901e-09 5.08194e-08 -1.56299e-07)
    writing force and moment files.

Time = 36

smoothSolver:  Solving for Ux, Initial residual = 0.000215471, Final residual = 1.34221e-05, No Iterations 2
smoothSolver:  Solving for Uy, Initial residual = 0.00335699, Final residual = 0.000157217, No Iterations 2
smoothSolver:  Solving for Uz, Initial residual = 0.00383517, Final residual = 0.000182784, No Iterations 2
GAMG:  Solving for p, Initial residual = 0.0189375, Final residual = 0.00100573, No Iterations 2
time step continuity errors : sum local = 4.91359e-05, global = -2.93566e-06, cumulative = 0.00080302
smoothSolver:  Solving for omega, Initial residual = 1.45076e-05, Final residual = 7.43281e-07, No Iterations 2
smoothSolver:  Solving for k, Initial residual = 0.00701166, Final residual = 0.000350916, No Iterations 2
ExecutionTime = 48.44 s  ClockTime = 49 s

forces forcesFish write:
    Sum of forces
        Total    : (0.0481258 7.22603e-05 -3.28168e-05)
        Pressure : (0.0101284 7.284e-05 -3.23017e-05)
        Viscous  : (0.0379973 -5.79733e-07 -5.15041e-07)
    Sum of moments
        Total    : (-2.21578e-09 -6.81081e-06 1.19556e-05)
        Pressure : (-5.46258e-09 -6.8499e-06 1.20974e-05)
        Viscous  : (3.2468e-09 3.90862e-08 -1.41833e-07)
    writing force and moment files.

Time = 37

smoothSolver:  Solving for Ux, Initial residual = 0.000201353, Final residual = 1.27892e-05, No Iterations 2
smoothSolver:  Solving for Uy, Initial residual = 0.00300784, Final residual = 0.000138043, No Iterations 2
smoothSolver:  Solving for Uz, Initial residual = 0.00336655, Final residual = 0.000147649, No Iterations 2
GAMG:  Solving for p, Initial residual = 0.0166955, Final residual = 0.000833038, No Iterations 2
time step continuity errors : sum local = 4.06099e-05, global = 3.36595e-06, cumulative = 0.000806386
smoothSolver:  Solving for omega, Initial residual = 1.3427e-05, Final residual = 6.9064e-07, No Iterations 2
smoothSolver:  Solving for k, Initial residual = 0.00643588, Final residual = 0.000329025, No Iterations 2
ExecutionTime = 49.76 s  ClockTime = 50 s

forces forcesFish write:
    Sum of forces
        Total    : (0.0478159 4.74972e-05 -3.31549e-05)
        Pressure : (0.0101433 4.80268e-05 -3.25802e-05)
        Viscous  : (0.0376726 -5.2967e-07 -5.74773e-07)
    Sum of moments
        Total    : (-2.11423e-09 -5.38742e-06 6.34794e-06)
        Pressure : (-5.52659e-09 -5.4171e-06 6.48516e-06)
        Viscous  : (3.41237e-09 2.96826e-08 -1.37226e-07)
    writing force and moment files.

Time = 38

smoothSolver:  Solving for Ux, Initial residual = 0.000184818, Final residual = 1.21323e-05, No Iterations 2
smoothSolver:  Solving for Uy, Initial residual = 0.00275728, Final residual = 0.000132493, No Iterations 2
smoothSolver:  Solving for Uz, Initial residual = 0.00304249, Final residual = 0.000132718, No Iterations 2
GAMG:  Solving for p, Initial residual = 0.0147973, Final residual = 0.000765287, No Iterations 2
time step continuity errors : sum local = 3.73858e-05, global = -5.07697e-07, cumulative = 0.000805878
smoothSolver:  Solving for omega, Initial residual = 1.24765e-05, Final residual = 6.43319e-07, No Iterations 2
smoothSolver:  Solving for k, Initial residual = 0.00590433, Final residual = 0.000308583, No Iterations 2
ExecutionTime = 51.03 s  ClockTime = 51 s

forces forcesFish write:
    Sum of forces
        Total    : (0.0475196 1.51684e-05 -2.61585e-05)
        Pressure : (0.010164 1.56824e-05 -2.55726e-05)
        Viscous  : (0.0373556 -5.14028e-07 -5.85865e-07)
    Sum of moments
        Total    : (-1.77187e-09 -3.31355e-06 -2.10656e-07)
        Pressure : (-5.38407e-09 -3.33681e-06 -6.81484e-08)
        Viscous  : (3.61221e-09 2.32571e-08 -1.42508e-07)
    writing force and moment files.

Time = 39

smoothSolver:  Solving for Ux, Initial residual = 0.000166471, Final residual = 1.1513e-05, No Iterations 2
smoothSolver:  Solving for Uy, Initial residual = 0.00254874, Final residual = 0.000132589, No Iterations 2
smoothSolver:  Solving for Uz, Initial residual = 0.00281036, Final residual = 0.000132169, No Iterations 2
GAMG:  Solving for p, Initial residual = 0.0131881, Final residual = 0.000779402, No Iterations 2
time step continuity errors : sum local = 3.84108e-05, global = -6.25397e-06, cumulative = 0.000799624
smoothSolver:  Solving for omega, Initial residual = 1.16439e-05, Final residual = 6.00791e-07, No Iterations 2
smoothSolver:  Solving for k, Initial residual = 0.005418, Final residual = 0.000289631, No Iterations 2
ExecutionTime = 52.26 s  ClockTime = 53 s

forces forcesFish write:
    Sum of forces
        Total    : (0.0472306 -1.59384e-05 -1.45713e-05)
        Pressure : (0.0101842 -1.54066e-05 -1.40186e-05)
        Viscous  : (0.0370464 -5.31897e-07 -5.52706e-07)
    Sum of moments
        Total    : (-1.33994e-09 -1.03224e-06 -5.89978e-06)
        Pressure : (-5.11553e-09 -1.05213e-06 -5.74503e-06)
        Viscous  : (3.77559e-09 1.98847e-08 -1.54747e-07)
    writing force and moment files.

Time = 40

smoothSolver:  Solving for Ux, Initial residual = 0.000157375, Final residual = 1.1105e-05, No Iterations 2
smoothSolver:  Solving for Uy, Initial residual = 0.00231285, Final residual = 0.000124241, No Iterations 2
smoothSolver:  Solving for Uz, Initial residual = 0.00256444, Final residual = 0.000128435, No Iterations 2
GAMG:  Solving for p, Initial residual = 0.0118522, Final residual = 0.000720527, No Iterations 2
time step continuity errors : sum local = 3.59926e-05, global = -5.41257e-06, cumulative = 0.000794211
smoothSolver:  Solving for omega, Initial residual = 1.09068e-05, Final residual = 5.62533e-07, No Iterations 2
smoothSolver:  Solving for k, Initial residual = 0.00497433, Final residual = 0.000272041, No Iterations 2
ExecutionTime = 53.51 s  ClockTime = 54 s

forces forcesFish write:
    Sum of forces
        Total    : (0.0469451 -3.66972e-05 -3.36751e-06)
        Pressure : (0.0101997 -3.61282e-05 -2.87669e-06)
        Viscous  : (0.0367454 -5.68929e-07 -4.90816e-07)
    Sum of moments
        Total    : (-9.53611e-10 9.9246e-07 -9.21535e-06)
        Pressure : (-4.80442e-09 9.73286e-07 -9.04636e-06)
        Viscous  : (3.85081e-09 1.91743e-08 -1.68983e-07)
    writing force and moment files.

Time = 41

smoothSolver:  Solving for Ux, Initial residual = 0.000148851, Final residual = 1.06723e-05, No Iterations 2
smoothSolver:  Solving for Uy, Initial residual = 0.00202738, Final residual = 0.000107561, No Iterations 2
smoothSolver:  Solving for Uz, Initial residual = 0.00226411, Final residual = 0.000114294, No Iterations 2
GAMG:  Solving for p, Initial residual = 0.0106968, Final residual = 0.000544873, No Iterations 2
time step continuity errors : sum local = 2.75737e-05, global = 2.48968e-06, cumulative = 0.000796701
smoothSolver:  Solving for omega, Initial residual = 1.02654e-05, Final residual = 5.2846e-07, No Iterations 2
smoothSolver:  Solving for k, Initial residual = 0.0045697, Final residual = 0.000255636, No Iterations 2
ExecutionTime = 54.76 s  ClockTime = 55 s

forces forcesFish write:
    Sum of forces
        Total    : (0.0466577 -4.37667e-05 4.0519e-06)
        Pressure : (0.0102052 -4.3159e-05 4.47137e-06)
        Viscous  : (0.0364525 -6.07637e-07 -4.19474e-07)
    Sum of moments
        Total    : (-7.01073e-10 2.43718e-06 -9.80646e-06)
        Pressure : (-4.51717e-09 2.41687e-06 -9.62519e-06)
        Viscous  : (3.8161e-09 2.03016e-08 -1.81273e-07)
    writing force and moment files.

Time = 42

smoothSolver:  Solving for Ux, Initial residual = 0.000139315, Final residual = 1.02667e-05, No Iterations 2
smoothSolver:  Solving for Uy, Initial residual = 0.00175969, Final residual = 9.0207e-05, No Iterations 2
smoothSolver:  Solving for Uz, Initial residual = 0.00195675, Final residual = 9.58133e-05, No Iterations 2
GAMG:  Solving for p, Initial residual = 0.00960889, Final residual = 0.000401591, No Iterations 2
time step continuity errors : sum local = 2.05057e-05, global = 8.79652e-06, cumulative = 0.000805498
smoothSolver:  Solving for omega, Initial residual = 9.70086e-06, Final residual = 4.98753e-07, No Iterations 2
smoothSolver:  Solving for k, Initial residual = 0.00420359, Final residual = 0.000240438, No Iterations 2
ExecutionTime = 56.03 s  ClockTime = 56 s

forces forcesFish write:
    Sum of forces
        Total    : (0.0463635 -3.92692e-05 6.71321e-06)
        Pressure : (0.0101964 -3.86333e-05 7.06862e-06)
        Viscous  : (0.0361671 -6.35895e-07 -3.55404e-07)
    Sum of moments
        Total    : (-6.19158e-10 3.05549e-06 -8.37324e-06)
        Pressure : (-4.30154e-09 3.03342e-06 -8.1838e-06)
        Viscous  : (3.68238e-09 2.20679e-08 -1.89437e-07)
    writing force and moment files.

Time = 43

smoothSolver:  Solving for Ux, Initial residual = 0.000132549, Final residual = 9.94486e-06, No Iterations 2
smoothSolver:  Solving for Uy, Initial residual = 0.00158069, Final residual = 7.75133e-05, No Iterations 2
smoothSolver:  Solving for Uz, Initial residual = 0.00173195, Final residual = 8.10165e-05, No Iterations 2
GAMG:  Solving for p, Initial residual = 0.00859241, Final residual = 0.000386494, No Iterations 2
time step continuity errors : sum local = 1.98207e-05, global = 6.23107e-06, cumulative = 0.000811729
smoothSolver:  Solving for omega, Initial residual = 9.19668e-06, Final residual = 4.72175e-07, No Iterations 2
smoothSolver:  Solving for k, Initial residual = 0.00387173, Final residual = 0.000226266, No Iterations 2
ExecutionTime = 57.27 s  ClockTime = 58 s

forces forcesFish write:
    Sum of forces
        Total    : (0.0460636 -2.92061e-05 5.74641e-06)
        Pressure : (0.010175 -2.8554e-05 6.05624e-06)
        Viscous  : (0.0358887 -6.52111e-07 -3.09837e-07)
    Sum of moments
        Total    : (-6.92124e-10 3.14266e-06 -6.0054e-06)
        Pressure : (-4.18079e-09 3.11832e-06 -5.81235e-06)
        Viscous  : (3.48867e-09 2.43459e-08 -1.93054e-07)
    writing force and moment files.

Time = 44

smoothSolver:  Solving for Ux, Initial residual = 0.00012802, Final residual = 9.67209e-06, No Iterations 2
smoothSolver:  Solving for Uy, Initial residual = 0.00145868, Final residual = 6.96772e-05, No Iterations 2
smoothSolver:  Solving for Uz, Initial residual = 0.0015904, Final residual = 7.2288e-05, No Iterations 2
GAMG:  Solving for p, Initial residual = 0.00770026, Final residual = 0.000348295, No Iterations 2
time step continuity errors : sum local = 1.79022e-05, global = 2.12219e-06, cumulative = 0.000813851
smoothSolver:  Solving for omega, Initial residual = 8.74667e-06, Final residual = 4.47902e-07, No Iterations 2
smoothSolver:  Solving for k, Initial residual = 0.00357151, Final residual = 0.000213026, No Iterations 2
ExecutionTime = 58.49 s  ClockTime = 59 s

forces forcesFish write:
    Sum of forces
        Total    : (0.0457631 -1.70153e-05 2.33998e-06)
        Pressure : (0.0101458 -1.63589e-05 2.6282e-06)
        Viscous  : (0.0356173 -6.56452e-07 -2.88227e-07)
    Sum of moments
        Total    : (-8.73939e-10 2.96484e-06 -3.28654e-06)
        Pressure : (-4.15552e-09 2.93759e-06 -3.09442e-06)
        Viscous  : (3.28158e-09 2.72511e-08 -1.92123e-07)
    writing force and moment files.

Time = 45

smoothSolver:  Solving for Ux, Initial residual = 0.000125476, Final residual = 9.43781e-06, No Iterations 2
smoothSolver:  Solving for Uy, Initial residual = 0.00136958, Final residual = 6.56681e-05, No Iterations 2
smoothSolver:  Solving for Uz, Initial residual = 0.00149928, Final residual = 6.83163e-05, No Iterations 2
GAMG:  Solving for p, Initial residual = 0.00696686, Final residual = 0.000299391, No Iterations 2
time step continuity errors : sum local = 1.54036e-05, global = 1.19357e-07, cumulative = 0.00081397
smoothSolver:  Solving for omega, Initial residual = 8.34414e-06, Final residual = 4.25981e-07, No Iterations 2
smoothSolver:  Solving for k, Initial residual = 0.00330139, Final residual = 0.000200698, No Iterations 2
ExecutionTime = 59.75 s  ClockTime = 60 s

forces forcesFish write:
    Sum of forces
        Total    : (0.0454661 -4.81143e-06 -2.36594e-06)
        Pressure : (0.010113 -4.16201e-06 -2.07572e-06)
        Viscous  : (0.0353531 -6.4942e-07 -2.90221e-07)
    Sum of moments
        Total    : (-1.10989e-09 2.63956e-06 -6.64325e-07)
        Pressure : (-4.21036e-09 2.60909e-06 -4.77086e-07)
        Viscous  : (3.10046e-09 3.04683e-08 -1.87239e-07)
    writing force and moment files.

Time = 46

smoothSolver:  Solving for Ux, Initial residual = 0.00012205, Final residual = 9.17574e-06, No Iterations 2
smoothSolver:  Solving for Uy, Initial residual = 0.00129761, Final residual = 6.31948e-05, No Iterations 2
smoothSolver:  Solving for Uz, Initial residual = 0.00142472, Final residual = 6.65289e-05, No Iterations 2
GAMG:  Solving for p, Initial residual = 0.00636916, Final residual = 0.000292853, No Iterations 2
time step continuity errors : sum local = 1.50605e-05, global = 4.3262e-07, cumulative = 0.000814403
smoothSolver:  Solving for omega, Initial residual = 7.98911e-06, Final residual = 4.06461e-07, No Iterations 2
smoothSolver:  Solving for k, Initial residual = 0.00305743, Final residual = 0.000189129, No Iterations 2
ExecutionTime = 60.99 s  ClockTime = 61 s

forces forcesFish write:
    Sum of forces
        Total    : (0.0451751 5.33222e-06 -7.08162e-06)
        Pressure : (0.0100792 5.96563e-06 -6.77103e-06)
        Viscous  : (0.0350959 -6.33402e-07 -3.10587e-07)
    Sum of moments
        Total    : (-1.3503e-09 2.2376e-06 1.3805e-06)
        Pressure : (-4.32035e-09 2.20417e-06 1.56033e-06)
        Viscous  : (2.97005e-09 3.34267e-08 -1.7983e-07)
    writing force and moment files.

Time = 47

smoothSolver:  Solving for Ux, Initial residual = 0.000117962, Final residual = 8.89467e-06, No Iterations 2
smoothSolver:  Solving for Uy, Initial residual = 0.00123185, Final residual = 6.13932e-05, No Iterations 2
smoothSolver:  Solving for Uz, Initial residual = 0.00135265, Final residual = 6.49463e-05, No Iterations 2
GAMG:  Solving for p, Initial residual = 0.00585093, Final residual = 0.00030747, No Iterations 2
time step continuity errors : sum local = 1.57826e-05, global = 1.1334e-06, cumulative = 0.000815536
smoothSolver:  Solving for omega, Initial residual = 7.67775e-06, Final residual = 3.89207e-07, No Iterations 2
smoothSolver:  Solving for k, Initial residual = 0.00283778, Final residual = 0.000178304, No Iterations 2
ExecutionTime = 62.27 s  ClockTime = 63 s

forces forcesFish write:
    Sum of forces
        Total    : (0.0448917 1.14607e-05 -1.05329e-05)
        Pressure : (0.0100464 1.20742e-05 -1.01919e-05)
        Viscous  : (0.0348453 -6.13546e-07 -3.40968e-07)
    Sum of moments
        Total    : (-1.5568e-09 1.82935e-06 2.44814e-06)
        Pressure : (-4.4571e-09 1.79356e-06 2.61995e-06)
        Viscous  : (2.9003e-09 3.57829e-08 -1.71818e-07)
    writing force and moment files.

Time = 48

smoothSolver:  Solving for Ux, Initial residual = 0.000114019, Final residual = 8.61604e-06, No Iterations 2
smoothSolver:  Solving for Uy, Initial residual = 0.00117376, Final residual = 6.06088e-05, No Iterations 2
smoothSolver:  Solving for Uz, Initial residual = 0.00127951, Final residual = 6.33307e-05, No Iterations 2
GAMG:  Solving for p, Initial residual = 0.00539593, Final residual = 0.000292184, No Iterations 2
time step continuity errors : sum local = 1.49572e-05, global = 6.89568e-07, cumulative = 0.000816226
smoothSolver:  Solving for omega, Initial residual = 7.40308e-06, Final residual = 3.73803e-07, No Iterations 2
smoothSolver:  Solving for k, Initial residual = 0.00263955, Final residual = 0.000168152, No Iterations 2
ExecutionTime = 63.49 s  ClockTime = 64 s

forces forcesFish write:
    Sum of forces
        Total    : (0.0446168 1.28857e-05 -1.20007e-05)
        Pressure : (0.010016 1.34813e-05 -1.16282e-05)
        Viscous  : (0.0346008 -5.95512e-07 -3.72502e-07)
    Sum of moments
        Total    : (-1.70737e-09 1.47388e-06 2.46453e-06)
        Pressure : (-4.59472e-09 1.43653e-06 2.62954e-06)
        Viscous  : (2.88735e-09 3.73478e-08 -1.65011e-07)
    writing force and moment files.

Time = 49

smoothSolver:  Solving for Ux, Initial residual = 0.000109829, Final residual = 8.35045e-06, No Iterations 2
smoothSolver:  Solving for Uy, Initial residual = 0.00112042, Final residual = 6.01372e-05, No Iterations 2
smoothSolver:  Solving for Uz, Initial residual = 0.00120567, Final residual = 6.19824e-05, No Iterations 2
GAMG:  Solving for p, Initial residual = 0.00497705, Final residual = 0.000244448, No Iterations 2
time step continuity errors : sum local = 1.24802e-05, global = -9.99114e-07, cumulative = 0.000815227
smoothSolver:  Solving for omega, Initial residual = 7.16027e-06, Final residual = 3.60098e-07, No Iterations 2
smoothSolver:  Solving for k, Initial residual = 0.0024595, Final residual = 0.000158566, No Iterations 2
ExecutionTime = 64.72 s  ClockTime = 65 s

forces forcesFish write:
    Sum of forces
        Total    : (0.0443512 1.03622e-05 -1.14968e-05)
        Pressure : (0.00998924 1.09456e-05 -1.10988e-05)
        Viscous  : (0.034362 -5.83346e-07 -3.97985e-07)
    Sum of moments
        Total    : (-1.79813e-09 1.21329e-06 1.6727e-06)
        Pressure : (-4.71417e-09 1.17514e-06 1.8332e-06)
        Viscous  : (2.91605e-09 3.81581e-08 -1.60502e-07)
    writing force and moment files.

Time = 50

smoothSolver:  Solving for Ux, Initial residual = 0.000105722, Final residual = 8.10732e-06, No Iterations 2
smoothSolver:  Solving for Uy, Initial residual = 0.00106779, Final residual = 5.95294e-05, No Iterations 2
smoothSolver:  Solving for Uz, Initial residual = 0.00113286, Final residual = 6.07764e-05, No Iterations 2
GAMG:  Solving for p, Initial residual = 0.00458836, Final residual = 0.000195496, No Iterations 2
time step continuity errors : sum local = 9.96256e-06, global = -2.67498e-06, cumulative = 0.000812552
smoothSolver:  Solving for omega, Initial residual = 6.94532e-06, Final residual = 3.47882e-07, No Iterations 2
smoothSolver:  Solving for k, Initial residual = 0.00229633, Final residual = 0.000149553, No Iterations 2
ExecutionTime = 65.93 s  ClockTime = 66 s

forces forcesFish write:
    Sum of forces
        Total    : (0.0440953 5.75087e-06 -9.68199e-06)
        Pressure : (0.00996688 6.32876e-06 -9.26873e-06)
        Viscous  : (0.0341284 -5.77894e-07 -4.13265e-07)
    Sum of moments
        Total    : (-1.84018e-09 1.05979e-06 5.2259e-07)
        Pressure : (-4.80487e-09 1.02146e-06 6.8099e-07)
        Viscous  : (2.96469e-09 3.83271e-08 -1.584e-07)
    writing force and moment files.

Time = 51

smoothSolver:  Solving for Ux, Initial residual = 0.000102177, Final residual = 7.89e-06, No Iterations 2
smoothSolver:  Solving for Uy, Initial residual = 0.00101425, Final residual = 5.82815e-05, No Iterations 2
smoothSolver:  Solving for Uz, Initial residual = 0.00106612, Final residual = 5.91271e-05, No Iterations 2
GAMG:  Solving for p, Initial residual = 0.00422915, Final residual = 0.000172456, No Iterations 2
time step continuity errors : sum local = 8.78301e-06, global = -2.66245e-06, cumulative = 0.000809889
smoothSolver:  Solving for omega, Initial residual = 6.7543e-06, Final residual = 3.3703e-07, No Iterations 2
smoothSolver:  Solving for k, Initial residual = 0.0021474, Final residual = 0.000141029, No Iterations 2
ExecutionTime = 67.14 s  ClockTime = 68 s

forces forcesFish write:
    Sum of forces
        Total    : (0.0438479 9.61701e-07 -7.50032e-06)
        Pressure : (0.00994795 1.53926e-06 -7.08276e-06)
        Viscous  : (0.0338999 -5.77556e-07 -4.17554e-07)
    Sum of moments
        Total    : (-1.85187e-09 1.00312e-06 -5.88826e-07)
        Pressure : (-4.86414e-09 9.65122e-07 -4.3061e-07)
        Viscous  : (3.01226e-09 3.79988e-08 -1.58216e-07)
    writing force and moment files.

Time = 52

smoothSolver:  Solving for Ux, Initial residual = 9.88668e-05, Final residual = 7.68673e-06, No Iterations 2
smoothSolver:  Solving for Uy, Initial residual = 0.000963792, Final residual = 5.61785e-05, No Iterations 2
smoothSolver:  Solving for Uz, Initial residual = 0.00100905, Final residual = 5.6884e-05, No Iterations 2
GAMG:  Solving for p, Initial residual = 0.00391555, Final residual = 0.000165331, No Iterations 2
time step continuity errors : sum local = 8.42289e-06, global = -1.50446e-06, cumulative = 0.000808385
smoothSolver:  Solving for omega, Initial residual = 6.5809e-06, Final residual = 3.27209e-07, No Iterations 2
smoothSolver:  Solving for k, Initial residual = 0.00201109, Final residual = 0.00013297, No Iterations 2
ExecutionTime = 68.36 s  ClockTime = 69 s

forces forcesFish write:
    Sum of forces
        Total    : (0.0436066 -3.08936e-06 -5.63475e-06)
        Pressure : (0.00993042 -2.50886e-06 -5.22212e-06)
        Viscous  : (0.0336762 -5.80501e-07 -4.12633e-07)
    Sum of moments
        Total    : (-1.8502e-09 1.0457e-06 -1.48662e-06)
        Pressure : (-4.89529e-09 1.00827e-06 -1.32732e-06)
        Viscous  : (3.04509e-09 3.74237e-08 -1.59303e-07)
    writing force and moment files.

Time = 53

smoothSolver:  Solving for Ux, Initial residual = 9.61199e-05, Final residual = 7.4994e-06, No Iterations 2
smoothSolver:  Solving for Uy, Initial residual = 0.00091686, Final residual = 5.34991e-05, No Iterations 2
smoothSolver:  Solving for Uz, Initial residual = 0.000959457, Final residual = 5.41326e-05, No Iterations 2
GAMG:  Solving for p, Initial residual = 0.00363906, Final residual = 0.000169619, No Iterations 2
time step continuity errors : sum local = 8.64787e-06, global = -3.29186e-07, cumulative = 0.000808056
smoothSolver:  Solving for omega, Initial residual = 6.42278e-06, Final residual = 3.18141e-07, No Iterations 2
smoothSolver:  Solving for k, Initial residual = 0.00188592, Final residual = 0.000125357, No Iterations 2
ExecutionTime = 69.59 s  ClockTime = 70 s

forces forcesFish write:
    Sum of forces
        Total    : (0.0433702 -5.99568e-06 -4.46637e-06)
        Pressure : (0.0099131 -5.41055e-06 -4.06453e-06)
        Viscous  : (0.0334571 -5.8513e-07 -4.01845e-07)
    Sum of moments
        Total    : (-1.84793e-09 1.18588e-06 -2.08264e-06)
        Pressure : (-4.90528e-09 1.14891e-06 -1.92165e-06)
        Viscous  : (3.05735e-09 3.69736e-08 -1.60997e-07)
    writing force and moment files.

Time = 54

smoothSolver:  Solving for Ux, Initial residual = 9.39233e-05, Final residual = 7.32601e-06, No Iterations 2
smoothSolver:  Solving for Uy, Initial residual = 0.000869602, Final residual = 5.06291e-05, No Iterations 2
smoothSolver:  Solving for Uz, Initial residual = 0.00091137, Final residual = 5.12391e-05, No Iterations 2
GAMG:  Solving for p, Initial residual = 0.00341041, Final residual = 0.000173314, No Iterations 2
time step continuity errors : sum local = 8.84449e-06, global = 4.00189e-07, cumulative = 0.000808456
smoothSolver:  Solving for omega, Initial residual = 6.27708e-06, Final residual = 3.09878e-07, No Iterations 2
smoothSolver:  Solving for k, Initial residual = 0.00177003, Final residual = 0.00011813, No Iterations 2
ExecutionTime = 70.81 s  ClockTime = 71 s

forces forcesFish write:
    Sum of forces
        Total    : (0.0431383 -7.55832e-06 -4.12909e-06)
        Pressure : (0.00989564 -6.96827e-06 -3.7401e-06)
        Viscous  : (0.0332426 -5.90048e-07 -3.88987e-07)
    Sum of moments
        Total    : (-1.85288e-09 1.39815e-06 -2.33654e-06)
        Pressure : (-4.90262e-09 1.36126e-06 -2.1739e-06)
        Viscous  : (3.04974e-09 3.68929e-08 -1.62646e-07)
    writing force and moment files.

Time = 55

smoothSolver:  Solving for Ux, Initial residual = 9.20908e-05, Final residual = 7.15895e-06, No Iterations 2
smoothSolver:  Solving for Uy, Initial residual = 0.000823545, Final residual = 4.79379e-05, No Iterations 2
smoothSolver:  Solving for Uz, Initial residual = 0.000864876, Final residual = 4.85899e-05, No Iterations 2
GAMG:  Solving for p, Initial residual = 0.00321274, Final residual = 0.00017549, No Iterations 2
time step continuity errors : sum local = 8.9652e-06, global = 6.6624e-07, cumulative = 0.000809122
smoothSolver:  Solving for omega, Initial residual = 6.13979e-06, Final residual = 3.0238e-07, No Iterations 2
smoothSolver:  Solving for k, Initial residual = 0.00166286, Final residual = 0.000111303, No Iterations 2
ExecutionTime = 72.02 s  ClockTime = 72 s

forces forcesFish write:
    Sum of forces
        Total    : (0.0429108 -7.79732e-06 -4.54507e-06)
        Pressure : (0.00987811 -7.20329e-06 -4.16775e-06)
        Viscous  : (0.0330327 -5.94026e-07 -3.77313e-07)
    Sum of moments
        Total    : (-1.86828e-09 1.64204e-06 -2.26943e-06)
        Pressure : (-4.89538e-09 1.60477e-06 -2.10569e-06)
        Viscous  : (3.0271e-09 3.72647e-08 -1.63734e-07)
    writing force and moment files.

Time = 56

smoothSolver:  Solving for Ux, Initial residual = 9.02546e-05, Final residual = 6.99352e-06, No Iterations 2
smoothSolver:  Solving for Uy, Initial residual = 0.000781958, Final residual = 4.5733e-05, No Iterations 2
smoothSolver:  Solving for Uz, Initial residual = 0.000819769, Final residual = 4.63923e-05, No Iterations 2
GAMG:  Solving for p, Initial residual = 0.00303822, Final residual = 0.000170466, No Iterations 2
time step continuity errors : sum local = 8.71886e-06, global = 6.66984e-07, cumulative = 0.000809789
smoothSolver:  Solving for omega, Initial residual = 6.01023e-06, Final residual = 2.95452e-07, No Iterations 2
smoothSolver:  Solving for k, Initial residual = 0.00156296, Final residual = 0.000104821, No Iterations 2
ExecutionTime = 73.26 s  ClockTime = 74 s

forces forcesFish write:
    Sum of forces
        Total    : (0.042688 -6.96049e-06 -5.46792e-06)
        Pressure : (0.0098607 -6.36431e-06 -5.09893e-06)
        Viscous  : (0.0328272 -5.96179e-07 -3.6899e-07)
    Sum of moments
        Total    : (-1.89291e-09 1.87084e-06 -1.96506e-06)
        Pressure : (-4.88968e-09 1.83275e-06 -1.80109e-06)
        Viscous  : (2.99677e-09 3.80894e-08 -1.63975e-07)
    writing force and moment files.

Time = 57

smoothSolver:  Solving for Ux, Initial residual = 8.8239e-05, Final residual = 6.82676e-06, No Iterations 2
smoothSolver:  Solving for Uy, Initial residual = 0.000749176, Final residual = 4.41944e-05, No Iterations 2
smoothSolver:  Solving for Uz, Initial residual = 0.000778511, Final residual = 4.47569e-05, No Iterations 2
GAMG:  Solving for p, Initial residual = 0.00287508, Final residual = 0.000160792, No Iterations 2
time step continuity errors : sum local = 8.23488e-06, global = 6.34642e-07, cumulative = 0.000810424
smoothSolver:  Solving for omega, Initial residual = 5.88953e-06, Final residual = 2.89034e-07, No Iterations 2
smoothSolver:  Solving for k, Initial residual = 0.00146983, Final residual = 9.86869e-05, No Iterations 2
ExecutionTime = 74.49 s  ClockTime = 75 s

forces forcesFish write:
    Sum of forces
        Total    : (0.0424698 -5.4783e-06 -6.56879e-06)
        Pressure : (0.00984353 -4.88212e-06 -6.20393e-06)
        Viscous  : (0.0326263 -5.96183e-07 -3.64851e-07)
    Sum of moments
        Total    : (-1.9227e-09 2.04673e-06 -1.54714e-06)
        Pressure : (-4.88901e-09 2.00752e-06 -1.38379e-06)
        Viscous  : (2.9663e-09 3.921e-08 -1.63351e-07)
    writing force and moment files.

Time = 58

smoothSolver:  Solving for Ux, Initial residual = 8.60145e-05, Final residual = 6.65843e-06, No Iterations 2
smoothSolver:  Solving for Uy, Initial residual = 0.000725243, Final residual = 4.33271e-05, No Iterations 2
smoothSolver:  Solving for Uz, Initial residual = 0.000744461, Final residual = 4.37164e-05, No Iterations 2
GAMG:  Solving for p, Initial residual = 0.00272481, Final residual = 0.000151994, No Iterations 2
time step continuity errors : sum local = 7.79538e-06, global = 6.49606e-07, cumulative = 0.000811073
smoothSolver:  Solving for omega, Initial residual = 5.77695e-06, Final residual = 2.83123e-07, No Iterations 2
smoothSolver:  Solving for k, Initial residual = 0.00138265, Final residual = 9.28746e-05, No Iterations 2
ExecutionTime = 75.72 s  ClockTime = 76 s

forces forcesFish write:
    Sum of forces
        Total    : (0.0422562 -3.84494e-06 -7.54401e-06)
        Pressure : (0.0098266 -3.25066e-06 -7.17942e-06)
        Viscous  : (0.0324296 -5.94282e-07 -3.64592e-07)
    Sum of moments
        Total    : (-1.95283e-09 2.15139e-06 -1.14153e-06)
        Pressure : (-4.89444e-09 2.11084e-06 -9.79472e-07)
        Viscous  : (2.94161e-09 4.05435e-08 -1.62063e-07)
    writing force and moment files.

Time = 59

smoothSolver:  Solving for Ux, Initial residual = 8.3591e-05, Final residual = 6.4888e-06, No Iterations 2
smoothSolver:  Solving for Uy, Initial residual = 0.000708618, Final residual = 4.29545e-05, No Iterations 2
smoothSolver:  Solving for Uz, Initial residual = 0.00071942, Final residual = 4.3124e-05, No Iterations 2
GAMG:  Solving for p, Initial residual = 0.00258877, Final residual = 0.000142, No Iterations 2
time step continuity errors : sum local = 7.29341e-06, global = 7.47147e-07, cumulative = 0.00081182
smoothSolver:  Solving for omega, Initial residual = 5.6702e-06, Final residual = 2.77655e-07, No Iterations 2
smoothSolver:  Solving for k, Initial residual = 0.00130077, Final residual = 8.73641e-05, No Iterations 2
ExecutionTime = 76.96 s  ClockTime = 77 s

forces forcesFish write:
    Sum of forces
        Total    : (0.0420471 -2.4818e-06 -8.19311e-06)
        Pressure : (0.0098099 -1.89061e-06 -7.82601e-06)
        Viscous  : (0.0322372 -5.91185e-07 -3.67105e-07)
    Sum of moments
        Total    : (-1.9788e-09 2.18793e-06 -8.42216e-07)
        Pressure : (-4.90513e-09 2.14601e-06 -6.81776e-07)
        Viscous  : (2.92632e-09 4.19193e-08 -1.6044e-07)
    writing force and moment files.

Time = 60

smoothSolver:  Solving for Ux, Initial residual = 8.09744e-05, Final residual = 6.317e-06, No Iterations 2
smoothSolver:  Solving for Uy, Initial residual = 0.000695322, Final residual = 4.27538e-05, No Iterations 2
smoothSolver:  Solving for Uz, Initial residual = 0.000702493, Final residual = 4.27403e-05, No Iterations 2
GAMG:  Solving for p, Initial residual = 0.00246207, Final residual = 0.000130386, No Iterations 2
time step continuity errors : sum local = 6.70623e-06, global = 8.77089e-07, cumulative = 0.000812698
smoothSolver:  Solving for omega, Initial residual = 5.56823e-06, Final residual = 2.72537e-07, No Iterations 2
smoothSolver:  Solving for k, Initial residual = 0.00122387, Final residual = 8.2152e-05, No Iterations 2
ExecutionTime = 78.19 s  ClockTime = 79 s

forces forcesFish write:
    Sum of forces
        Total    : (0.0418424 -1.63352e-06 -8.46787e-06)
        Pressure : (0.00979354 -1.04583e-06 -8.09675e-06)
        Viscous  : (0.0320489 -5.87697e-07 -3.71114e-07)
    Sum of moments
        Total    : (-1.99825e-09 2.17759e-06 -6.90773e-07)
        Pressure : (-4.9192e-09 2.13437e-06 -5.32032e-07)
        Viscous  : (2.92095e-09 4.32292e-08 -1.58742e-07)
    writing force and moment files.

Time = 61

smoothSolver:  Solving for Ux, Initial residual = 7.81947e-05, Final residual = 6.14595e-06, No Iterations 2
smoothSolver:  Solving for Uy, Initial residual = 0.000682146, Final residual = 4.24831e-05, No Iterations 2
smoothSolver:  Solving for Uz, Initial residual = 0.000688391, Final residual = 4.23651e-05, No Iterations 2
GAMG:  Solving for p, Initial residual = 0.00234176, Final residual = 0.000119348, No Iterations 2
time step continuity errors : sum local = 6.14584e-06, global = 8.88733e-07, cumulative = 0.000813586
smoothSolver:  Solving for omega, Initial residual = 5.47118e-06, Final residual = 2.67676e-07, No Iterations 2
smoothSolver:  Solving for k, Initial residual = 0.00115131, Final residual = 7.72089e-05, No Iterations 2
ExecutionTime = 79.47 s  ClockTime = 80 s

forces forcesFish write:
    Sum of forces
        Total    : (0.0416422 -1.33496e-06 -8.45135e-06)
        Pressure : (0.00977763 -7.50507e-07 -8.07586e-06)
        Viscous  : (0.0318646 -5.84452e-07 -3.75489e-07)
    Sum of moments
        Total    : (-2.01074e-09 2.14862e-06 -6.77628e-07)
        Pressure : (-4.93441e-09 2.10416e-06 -5.20462e-07)
        Viscous  : (2.92367e-09 4.44647e-08 -1.57165e-07)
    writing force and moment files.

Time = 62

smoothSolver:  Solving for Ux, Initial residual = 7.54349e-05, Final residual = 5.97934e-06, No Iterations 2
smoothSolver:  Solving for Uy, Initial residual = 0.000668297, Final residual = 4.20528e-05, No Iterations 2
smoothSolver:  Solving for Uz, Initial residual = 0.000673526, Final residual = 4.19e-05, No Iterations 2
GAMG:  Solving for p, Initial residual = 0.00222582, Final residual = 0.000110396, No Iterations 2
time step continuity errors : sum local = 5.69008e-06, global = 6.79361e-07, cumulative = 0.000814266
smoothSolver:  Solving for omega, Initial residual = 5.37868e-06, Final residual = 2.63019e-07, No Iterations 2
smoothSolver:  Solving for k, Initial residual = 0.00108302, Final residual = 7.25398e-05, No Iterations 2
ExecutionTime = 80.69 s  ClockTime = 81 s

forces forcesFish write:
    Sum of forces
        Total    : (0.0414463 -1.46429e-06 -8.28555e-06)
        Pressure : (0.00976215 -8.82489e-07 -7.9061e-06)
        Viscous  : (0.0316842 -5.818e-07 -3.7945e-07)
    Sum of moments
        Total    : (-2.01721e-09 2.12451e-06 -7.61369e-07)
        Pressure : (-4.94857e-09 2.07883e-06 -6.05508e-07)
        Viscous  : (2.93137e-09 4.56716e-08 -1.55861e-07)
    writing force and moment files.

Time = 63

smoothSolver:  Solving for Ux, Initial residual = 7.2879e-05, Final residual = 5.82026e-06, No Iterations 2
smoothSolver:  Solving for Uy, Initial residual = 0.000653112, Final residual = 4.14465e-05, No Iterations 2
smoothSolver:  Solving for Uz, Initial residual = 0.000657114, Final residual = 4.12918e-05, No Iterations 2
GAMG:  Solving for p, Initial residual = 0.00212047, Final residual = 0.000104819, No Iterations 2
time step continuity errors : sum local = 5.40629e-06, global = 2.88233e-07, cumulative = 0.000814554
smoothSolver:  Solving for omega, Initial residual = 5.29001e-06, Final residual = 2.58524e-07, No Iterations 2
smoothSolver:  Solving for k, Initial residual = 0.00101846, Final residual = 6.81163e-05, No Iterations 2
ExecutionTime = 81.91 s  ClockTime = 82 s

forces forcesFish write:
    Sum of forces
        Total    : (0.0412545 -1.85448e-06 -8.09999e-06)
        Pressure : (0.0097469 -1.2746e-06 -7.71741e-06)
        Viscous  : (0.0315076 -5.79877e-07 -3.82574e-07)
    Sum of moments
        Total    : (-2.01934e-09 2.11974e-06 -8.94481e-07)
        Pressure : (-4.96e-09 2.07287e-06 -7.39642e-07)
        Viscous  : (2.94066e-09 4.68658e-08 -1.54839e-07)
[...]
smoothSolver:  Solving for Uy, Initial residual = 1.64819e-05, Final residual = 1.16261e-06, No Iterations 2
smoothSolver:  Solving for Uz, Initial residual = 1.64485e-05, Final residual = 1.15877e-06, No Iterations 2
GAMG:  Solving for p, Initial residual = 4.00416e-05, Final residual = 2.48277e-06, No Iterations 2
time step continuity errors : sum local = 1.25633e-07, global = -3.29102e-09, cumulative = 0.000806319
smoothSolver:  Solving for omega, Initial residual = 4.31707e-08, Final residual = 8.31453e-09, No Iterations 1
smoothSolver:  Solving for k, Initial residual = 9.81303e-07, Final residual = 4.86507e-08, No Iterations 2
ExecutionTime = 350.47 s  ClockTime = 351 s

forces forcesFish write:
    Sum of forces
        Total    : (0.0338685 -4.72614e-06 -6.32212e-06)
        Pressure : (0.00935026 -4.21975e-06 -6.15051e-06)
        Viscous  : (0.0245183 -5.06389e-07 -1.71611e-07)
    Sum of moments
        Total    : (-2.10644e-09 1.74717e-06 -1.64407e-06)
        Pressure : (-5.14929e-09 1.76256e-06 -1.54192e-06)
        Viscous  : (3.04285e-09 -1.53871e-08 -1.0215e-07)
    writing force and moment files.

Time = 276

smoothSolver:  Solving for Ux, Initial residual = 6.35134e-07, Final residual = 3.2599e-08, No Iterations 2
smoothSolver:  Solving for Uy, Initial residual = 1.5946e-05, Final residual = 1.12468e-06, No Iterations 2
smoothSolver:  Solving for Uz, Initial residual = 1.59132e-05, Final residual = 1.1209e-06, No Iterations 2
GAMG:  Solving for p, Initial residual = 3.88688e-05, Final residual = 2.40345e-06, No Iterations 2
time step continuity errors : sum local = 1.21617e-07, global = -3.12313e-09, cumulative = 0.000806316
smoothSolver:  Solving for omega, Initial residual = 4.18866e-08, Final residual = 8.07384e-09, No Iterations 1
smoothSolver:  Solving for k, Initial residual = 9.46201e-07, Final residual = 4.67745e-08, No Iterations 2
ExecutionTime = 351.7 s  ClockTime = 352 s

forces forcesFish write:
    Sum of forces
        Total    : (0.0338681 -4.72609e-06 -6.32136e-06)
        Pressure : (0.00935034 -4.2197e-06 -6.14995e-06)
        Viscous  : (0.0245178 -5.06397e-07 -1.71409e-07)
    Sum of moments
        Total    : (-2.1065e-09 1.7469e-06 -1.64405e-06)
        Pressure : (-5.14946e-09 1.76237e-06 -1.5419e-06)
        Viscous  : (3.04296e-09 -1.54701e-08 -1.02151e-07)
    writing force and moment files.

Time = 277

smoothSolver:  Solving for Ux, Initial residual = 6.12872e-07, Final residual = 3.14186e-08, No Iterations 2
smoothSolver:  Solving for Uy, Initial residual = 1.54252e-05, Final residual = 1.08783e-06, No Iterations 2
smoothSolver:  Solving for Uz, Initial residual = 1.53928e-05, Final residual = 1.08411e-06, No Iterations 2
GAMG:  Solving for p, Initial residual = 3.77264e-05, Final residual = 2.32652e-06, No Iterations 2
time step continuity errors : sum local = 1.17723e-07, global = -2.98711e-09, cumulative = 0.000806313
smoothSolver:  Solving for omega, Initial residual = 4.06183e-08, Final residual = 7.83506e-09, No Iterations 1
smoothSolver:  Solving for k, Initial residual = 9.11538e-07, Final residual = 4.4938e-08, No Iterations 2
ExecutionTime = 352.93 s  ClockTime = 353 s

forces forcesFish write:
    Sum of forces
        Total    : (0.0338678 -4.72602e-06 -6.32068e-06)
        Pressure : (0.00935043 -4.21961e-06 -6.14947e-06)
        Viscous  : (0.0245173 -5.06404e-07 -1.71215e-07)
    Sum of moments
        Total    : (-2.10655e-09 1.74665e-06 -1.64403e-06)
        Pressure : (-5.14963e-09 1.7622e-06 -1.54187e-06)
        Viscous  : (3.04307e-09 -1.55504e-08 -1.02152e-07)
    writing force and moment files.

Time = 278

smoothSolver:  Solving for Ux, Initial residual = 5.91337e-07, Final residual = 3.02781e-08, No Iterations 2
smoothSolver:  Solving for Uy, Initial residual = 1.49189e-05, Final residual = 1.05204e-06, No Iterations 2
smoothSolver:  Solving for Uz, Initial residual = 1.4887e-05, Final residual = 1.04838e-06, No Iterations 2
GAMG:  Solving for p, Initial residual = 3.66133e-05, Final residual = 2.25196e-06, No Iterations 2
time step continuity errors : sum local = 1.13949e-07, global = -2.87885e-09, cumulative = 0.00080631
smoothSolver:  Solving for omega, Initial residual = 3.93705e-08, Final residual = 7.59924e-09, No Iterations 1
smoothSolver:  Solving for k, Initial residual = 8.77386e-07, Final residual = 4.3144e-08, No Iterations 2
ExecutionTime = 354.2 s  ClockTime = 355 s

forces forcesFish write:
    Sum of forces
        Total    : (0.0338674 -4.72592e-06 -6.32006e-06)
        Pressure : (0.0093505 -4.21951e-06 -6.14904e-06)
        Viscous  : (0.0245169 -5.06411e-07 -1.71027e-07)
    Sum of moments
        Total    : (-2.1066e-09 1.74643e-06 -1.64399e-06)
        Pressure : (-5.14978e-09 1.76206e-06 -1.54184e-06)
        Viscous  : (3.04318e-09 -1.56282e-08 -1.02154e-07)
    writing force and moment files.

Time = 279

smoothSolver:  Solving for Ux, Initial residual = 5.70511e-07, Final residual = 2.91762e-08, No Iterations 2
smoothSolver:  Solving for Uy, Initial residual = 1.44271e-05, Final residual = 1.01727e-06, No Iterations 2
smoothSolver:  Solving for Uz, Initial residual = 1.43957e-05, Final residual = 1.01367e-06, No Iterations 2
GAMG:  Solving for p, Initial residual = 3.5528e-05, Final residual = 2.1797e-06, No Iterations 2
time step continuity errors : sum local = 1.10291e-07, global = -2.79282e-09, cumulative = 0.000806307
smoothSolver:  Solving for omega, Initial residual = 3.81461e-08, Final residual = 7.36693e-09, No Iterations 1
smoothSolver:  Solving for k, Initial residual = 8.43822e-07, Final residual = 4.1395e-08, No Iterations 2
ExecutionTime = 355.47 s  ClockTime = 356 s

forces forcesFish write:
    Sum of forces
        Total    : (0.033867 -4.72579e-06 -6.31951e-06)
        Pressure : (0.00935058 -4.21938e-06 -6.14866e-06)
        Viscous  : (0.0245164 -5.06419e-07 -1.70845e-07)
    Sum of moments
        Total    : (-2.10666e-09 1.74623e-06 -1.64394e-06)
        Pressure : (-5.14994e-09 1.76193e-06 -1.54179e-06)
        Viscous  : (3.04328e-09 -1.57034e-08 -1.02155e-07)
    writing force and moment files.

Time = 280

smoothSolver:  Solving for Ux, Initial residual = 5.50379e-07, Final residual = 2.81121e-08, No Iterations 2
smoothSolver:  Solving for Uy, Initial residual = 1.39493e-05, Final residual = 9.83487e-07, No Iterations 2
smoothSolver:  Solving for Uz, Initial residual = 1.39185e-05, Final residual = 9.79954e-07, No Iterations 2
GAMG:  Solving for p, Initial residual = 3.44697e-05, Final residual = 2.10966e-06, No Iterations 2
time step continuity errors : sum local = 1.06746e-07, global = -2.72272e-09, cumulative = 0.000806304
smoothSolver:  Solving for omega, Initial residual = 3.6947e-08, Final residual = 7.1386e-09, No Iterations 1
smoothSolver:  Solving for k, Initial residual = 8.10928e-07, Final residual = 3.96934e-08, No Iterations 2
ExecutionTime = 356.68 s  ClockTime = 357 s

forces forcesFish write:
    Sum of forces
        Total    : (0.0338667 -4.72564e-06 -6.31901e-06)
        Pressure : (0.00935066 -4.21921e-06 -6.14834e-06)
        Viscous  : (0.024516 -5.06427e-07 -1.70669e-07)
    Sum of moments
        Total    : (-2.10671e-09 1.74605e-06 -1.64389e-06)
        Pressure : (-5.15009e-09 1.76183e-06 -1.54173e-06)
        Viscous  : (3.04339e-09 -1.57763e-08 -1.02157e-07)
    writing force and moment files.

Time = 281

smoothSolver:  Solving for Ux, Initial residual = 5.30922e-07, Final residual = 2.70846e-08, No Iterations 2
smoothSolver:  Solving for Uy, Initial residual = 1.34855e-05, Final residual = 9.50678e-07, No Iterations 2
smoothSolver:  Solving for Uz, Initial residual = 1.34552e-05, Final residual = 9.47211e-07, No Iterations 2
GAMG:  Solving for p, Initial residual = 3.34373e-05, Final residual = 2.04171e-06, No Iterations 2
time step continuity errors : sum local = 1.03306e-07, global = -2.66198e-09, cumulative = 0.000806302
smoothSolver:  Solving for omega, Initial residual = 3.57748e-08, Final residual = 6.91456e-09, No Iterations 1
smoothSolver:  Solving for k, Initial residual = 7.78777e-07, Final residual = 3.80413e-08, No Iterations 2
ExecutionTime = 357.96 s  ClockTime = 358 s

forces forcesFish write:
    Sum of forces
        Total    : (0.0338663 -4.72546e-06 -6.31856e-06)
        Pressure : (0.00935073 -4.21902e-06 -6.14806e-06)
        Viscous  : (0.0245156 -5.06434e-07 -1.70499e-07)
    Sum of moments
        Total    : (-2.10676e-09 1.74589e-06 -1.64382e-06)
        Pressure : (-5.15024e-09 1.76173e-06 -1.54166e-06)
        Viscous  : (3.04348e-09 -1.58467e-08 -1.02159e-07)
    writing force and moment files.

Time = 282

smoothSolver:  Solving for Ux, Initial residual = 5.12122e-07, Final residual = 2.60927e-08, No Iterations 2
smoothSolver:  Solving for Uy, Initial residual = 1.30353e-05, Final residual = 9.18822e-07, No Iterations 2
smoothSolver:  Solving for Uz, Initial residual = 1.30055e-05, Final residual = 9.15422e-07, No Iterations 2
GAMG:  Solving for p, Initial residual = 3.24299e-05, Final residual = 1.97574e-06, No Iterations 2
time step continuity errors : sum local = 9.99672e-08, global = -2.60428e-09, cumulative = 0.000806299
smoothSolver:  Solving for omega, Initial residual = 3.46296e-08, Final residual = 6.69503e-09, No Iterations 1
smoothSolver:  Solving for k, Initial residual = 7.47436e-07, Final residual = 3.64394e-08, No Iterations 2
ExecutionTime = 359.19 s  ClockTime = 360 s

forces forcesFish write:
    Sum of forces
        Total    : (0.033866 -4.72524e-06 -6.31815e-06)
        Pressure : (0.0093508 -4.2188e-06 -6.14782e-06)
        Viscous  : (0.0245152 -5.06442e-07 -1.70335e-07)
    Sum of moments
        Total    : (-2.10681e-09 1.74574e-06 -1.64374e-06)
        Pressure : (-5.15039e-09 1.76166e-06 -1.54158e-06)
        Viscous  : (3.04357e-09 -1.59148e-08 -1.02161e-07)
    writing force and moment files.

Time = 283

smoothSolver:  Solving for Ux, Initial residual = 4.93959e-07, Final residual = 2.51353e-08, No Iterations 2
smoothSolver:  Solving for Uy, Initial residual = 1.25985e-05, Final residual = 8.87902e-07, No Iterations 2
smoothSolver:  Solving for Uz, Initial residual = 1.25691e-05, Final residual = 8.84568e-07, No Iterations 2
GAMG:  Solving for p, Initial residual = 3.14465e-05, Final residual = 1.91161e-06, No Iterations 2
time step continuity errors : sum local = 9.67211e-08, global = -2.5439e-09, cumulative = 0.000806297
smoothSolver:  Solving for omega, Initial residual = 3.35119e-08, Final residual = 6.48018e-09, No Iterations 1
smoothSolver:  Solving for k, Initial residual = 7.1696e-07, Final residual = 3.48888e-08, No Iterations 2
ExecutionTime = 360.41 s  ClockTime = 361 s

forces forcesFish write:
    Sum of forces
        Total    : (0.0338657 -4.725e-06 -6.31778e-06)
        Pressure : (0.00935087 -4.21855e-06 -6.14761e-06)
        Viscous  : (0.0245148 -5.06449e-07 -1.70176e-07)
    Sum of moments
        Total    : (-2.10687e-09 1.74561e-06 -1.64365e-06)
        Pressure : (-5.15053e-09 1.76159e-06 -1.54149e-06)
        Viscous  : (3.04366e-09 -1.59807e-08 -1.02163e-07)
    writing force and moment files.

Time = 284

smoothSolver:  Solving for Ux, Initial residual = 4.76414e-07, Final residual = 2.42115e-08, No Iterations 2
smoothSolver:  Solving for Uy, Initial residual = 1.21747e-05, Final residual = 8.57899e-07, No Iterations 2
smoothSolver:  Solving for Uz, Initial residual = 1.21458e-05, Final residual = 8.54632e-07, No Iterations 2
GAMG:  Solving for p, Initial residual = 3.04865e-05, Final residual = 1.8492e-06, No Iterations 2
time step continuity errors : sum local = 9.35623e-08, global = -2.47611e-09, cumulative = 0.000806294
smoothSolver:  Solving for omega, Initial residual = 3.24218e-08, Final residual = 6.27016e-09, No Iterations 1
smoothSolver:  Solving for k, Initial residual = 6.87394e-07, Final residual = 3.339e-08, No Iterations 2
ExecutionTime = 361.64 s  ClockTime = 362 s

forces forcesFish write:
    Sum of forces
        Total    : (0.0338654 -4.72474e-06 -6.31745e-06)
        Pressure : (0.00935093 -4.21828e-06 -6.14743e-06)
        Viscous  : (0.0245144 -5.06457e-07 -1.70023e-07)
    Sum of moments
        Total    : (-2.10692e-09 1.74549e-06 -1.64356e-06)
        Pressure : (-5.15067e-09 1.76154e-06 -1.54139e-06)
        Viscous  : (3.04375e-09 -1.60443e-08 -1.02165e-07)
    writing force and moment files.

Time = 285

smoothSolver:  Solving for Ux, Initial residual = 4.59465e-07, Final residual = 2.33201e-08, No Iterations 2
smoothSolver:  Solving for Uy, Initial residual = 1.17637e-05, Final residual = 8.28798e-07, No Iterations 2
smoothSolver:  Solving for Uz, Initial residual = 1.17353e-05, Final residual = 8.25596e-07, No Iterations 2
GAMG:  Solving for p, Initial residual = 2.95493e-05, Final residual = 1.78841e-06, No Iterations 2
time step continuity errors : sum local = 9.04856e-08, global = -2.39736e-09, cumulative = 0.000806292
smoothSolver:  Solving for omega, Initial residual = 3.13592e-08, Final residual = 6.06504e-09, No Iterations 1
smoothSolver:  Solving for k, Initial residual = 6.58768e-07, Final residual = 3.19431e-08, No Iterations 2
ExecutionTime = 362.87 s  ClockTime = 363 s

forces forcesFish write:
    Sum of forces
        Total    : (0.0338651 -4.72445e-06 -6.31715e-06)
        Pressure : (0.009351 -4.21798e-06 -6.14728e-06)
        Viscous  : (0.0245141 -5.06464e-07 -1.69875e-07)
    Sum of moments
        Total    : (-2.10697e-09 1.74539e-06 -1.64345e-06)
        Pressure : (-5.15081e-09 1.76149e-06 -1.54128e-06)
        Viscous  : (3.04383e-09 -1.61057e-08 -1.02167e-07)
    writing force and moment files.

Time = 286

smoothSolver:  Solving for Ux, Initial residual = 4.43091e-07, Final residual = 2.24601e-08, No Iterations 2
smoothSolver:  Solving for Uy, Initial residual = 1.13653e-05, Final residual = 8.00578e-07, No Iterations 2
smoothSolver:  Solving for Uz, Initial residual = 1.13372e-05, Final residual = 7.97442e-07, No Iterations 2
GAMG:  Solving for p, Initial residual = 2.86346e-05, Final residual = 1.72916e-06, No Iterations 2
time step continuity errors : sum local = 8.74871e-08, global = -2.30541e-09, cumulative = 0.000806289
smoothSolver:  Solving for omega, Initial residual = 3.03239e-08, Final residual = 5.86489e-09, No Iterations 1
smoothSolver:  Solving for k, Initial residual = 6.311e-07, Final residual = 3.05482e-08, No Iterations 2
ExecutionTime = 364.1 s  ClockTime = 365 s

forces forcesFish write:
    Sum of forces
        Total    : (0.0338648 -4.72414e-06 -6.31689e-06)
        Pressure : (0.00935106 -4.21767e-06 -6.14716e-06)
        Viscous  : (0.0245137 -5.06471e-07 -1.69733e-07)
    Sum of moments
        Total    : (-2.10703e-09 1.74529e-06 -1.64334e-06)
        Pressure : (-5.15094e-09 1.76146e-06 -1.54117e-06)
        Viscous  : (3.04391e-09 -1.61651e-08 -1.02169e-07)
    writing force and moment files.

Time = 287

smoothSolver:  Solving for Ux, Initial residual = 4.27269e-07, Final residual = 2.16303e-08, No Iterations 2
smoothSolver:  Solving for Uy, Initial residual = 1.0979e-05, Final residual = 7.73221e-07, No Iterations 2
smoothSolver:  Solving for Uz, Initial residual = 1.09513e-05, Final residual = 7.70149e-07, No Iterations 2
GAMG:  Solving for p, Initial residual = 2.77422e-05, Final residual = 1.6714e-06, No Iterations 2
time step continuity errors : sum local = 8.4564e-08, global = -2.19945e-09, cumulative = 0.000806287
smoothSolver:  Solving for omega, Initial residual = 2.93159e-08, Final residual = 5.66973e-09, No Iterations 1
smoothSolver:  Solving for k, Initial residual = 6.04396e-07, Final residual = 2.92048e-08, No Iterations 2
ExecutionTime = 365.34 s  ClockTime = 366 s

forces forcesFish write:
    Sum of forces
        Total    : (0.0338645 -4.72382e-06 -6.31665e-06)
        Pressure : (0.00935112 -4.21734e-06 -6.14706e-06)
        Viscous  : (0.0245134 -5.06477e-07 -1.69596e-07)
    Sum of moments
        Total    : (-2.10708e-09 1.74521e-06 -1.64322e-06)
        Pressure : (-5.15107e-09 1.76143e-06 -1.54105e-06)
        Viscous  : (3.04399e-09 -1.62224e-08 -1.02171e-07)
    writing force and moment files.

Time = 288

smoothSolver:  Solving for Ux, Initial residual = 4.11978e-07, Final residual = 2.08299e-08, No Iterations 2
smoothSolver:  Solving for Uy, Initial residual = 1.06045e-05, Final residual = 7.46703e-07, No Iterations 2
smoothSolver:  Solving for Uz, Initial residual = 1.05773e-05, Final residual = 7.43697e-07, No Iterations 2
GAMG:  Solving for p, Initial residual = 2.6872e-05, Final residual = 1.6151e-06, No Iterations 2
time step continuity errors : sum local = 8.17147e-08, global = -2.08e-09, cumulative = 0.000806285
smoothSolver:  Solving for omega, Initial residual = 2.8335e-08, Final residual = 5.47958e-09, No Iterations 1
smoothSolver:  Solving for k, Initial residual = 5.78653e-07, Final residual = 2.79124e-08, No Iterations 2
ExecutionTime = 366.56 s  ClockTime = 367 s

forces forcesFish write:
    Sum of forces
        Total    : (0.0338643 -4.72348e-06 -6.31645e-06)
        Pressure : (0.00935117 -4.217e-06 -6.14698e-06)
        Viscous  : (0.0245131 -5.06484e-07 -1.69463e-07)
    Sum of moments
        Total    : (-2.10714e-09 1.74514e-06 -1.6431e-06)
        Pressure : (-5.1512e-09 1.76142e-06 -1.54092e-06)
        Viscous  : (3.04406e-09 -1.62778e-08 -1.02173e-07)
    writing force and moment files.

Time = 289

smoothSolver:  Solving for Ux, Initial residual = 3.97198e-07, Final residual = 2.00577e-08, No Iterations 2
smoothSolver:  Solving for Uy, Initial residual = 1.02416e-05, Final residual = 7.21004e-07, No Iterations 2
smoothSolver:  Solving for Uz, Initial residual = 1.02148e-05, Final residual = 7.18062e-07, No Iterations 2
GAMG:  Solving for p, Initial residual = 2.60236e-05, Final residual = 1.56026e-06, No Iterations 2
time step continuity errors : sum local = 7.8939e-08, global = -1.94882e-09, cumulative = 0.000806283
smoothSolver:  Solving for omega, Initial residual = 2.7381e-08, Final residual = 5.29445e-09, No Iterations 1
smoothSolver:  Solving for k, Initial residual = 5.53874e-07, Final residual = 2.667e-08, No Iterations 2
ExecutionTime = 367.79 s  ClockTime = 368 s

forces forcesFish write:
    Sum of forces
        Total    : (0.033864 -4.72314e-06 -6.31627e-06)
        Pressure : (0.00935123 -4.21665e-06 -6.14693e-06)
        Viscous  : (0.0245128 -5.0649e-07 -1.69335e-07)
    Sum of moments
        Total    : (-2.10719e-09 1.74508e-06 -1.64297e-06)
        Pressure : (-5.15132e-09 1.76141e-06 -1.5408e-06)
        Viscous  : (3.04413e-09 -1.63312e-08 -1.02175e-07)
    writing force and moment files.

Time = 290

smoothSolver:  Solving for Ux, Initial residual = 3.82907e-07, Final residual = 1.93128e-08, No Iterations 2
smoothSolver:  Solving for Uy, Initial residual = 9.88982e-06, Final residual = 6.961e-07, No Iterations 2
smoothSolver:  Solving for Uz, Initial residual = 9.86352e-06, Final residual = 6.93224e-07, No Iterations 2
GAMG:  Solving for p, Initial residual = 2.5197e-05, Final residual = 1.50687e-06, No Iterations 2
time step continuity errors : sum local = 7.62372e-08, global = -1.80867e-09, cumulative = 0.000806281
smoothSolver:  Solving for omega, Initial residual = 2.64535e-08, Final residual = 5.11432e-09, No Iterations 1
smoothSolver:  Solving for k, Initial residual = 5.30053e-07, Final residual = 2.54771e-08, No Iterations 2
ExecutionTime = 369.02 s  ClockTime = 369 s


SIMPLE solution converged in 290 iterations

forces forcesFish write:
    Sum of forces
        Total    : (0.0338638 -4.72279e-06 -6.31612e-06)
        Pressure : (0.00935128 -4.21629e-06 -6.14691e-06)
        Viscous  : (0.0245125 -5.06496e-07 -1.69212e-07)
    Sum of moments
        Total    : (-2.10725e-09 1.74503e-06 -1.64284e-06)
        Pressure : (-5.15144e-09 1.76141e-06 -1.54067e-06)
        Viscous  : (3.04419e-09 -1.63827e-08 -1.02177e-07)
    writing force and moment files.

End

