/*---------------------------------------------------------------------------*\
| =========                 |                                                 |
| \\      /  F ield         | OpenFOAM: The Open Source CFD Toolbox           |
|  \\    /   O peration     | Version:  2512                                  |
|   \\  /    A nd           | Website:  www.openfoam.com                      |
|    \\/     M anipulation  |                                                 |
\*---------------------------------------------------------------------------*/
Build  : _bd2b6720-20260127 OPENFOAM=2512 version=2512
Arch   : "LSB;label=32;scalar=64"
Exec   : simpleFoam
Date   : Mar 28 2026
Time   : 17:34:05
Host   : mathias-laptop
PID    : 9735
I/O    : uncollated
Case   : /home/mat/OpenFOAM/mat-run/speed_sweep_runs/U_0p6
nProcs : 1
trapFpe: Floating point exception trapping enabled (FOAM_SIGFPE).
memory pool : not available
fileModificationChecking : Monitoring run-time modified files using timeStampMaster (fileModificationSkew 5, maxFileModificationPolls 20)
allowSystemOperations : Allowing user-supplied system call operations

// * * * * * * * * * * * * * * * * * * * * * * * * * * * * * * * * * * * * * //
Create time

Create mesh for time = 0


SIMPLE: convergence criteria
    field p	 tolerance 0.0001
    field U	 tolerance 1e-05
    field "(k|omega)"	 tolerance 1e-05

Reading field p

Reading field U

Reading/calculating face flux field phi

Selecting incompressible transport model Newtonian
Selecting turbulence model type RAS
Selecting RAS turbulence model kOmegaSST
Selecting patchDistMethod meshWave
RAS
{
    RASModel        kOmegaSST;
    turbulence      on;
    printCoeffs     on;
    alphaK1         0.85;
    alphaK2         1;
    alphaOmega1     0.5;
    alphaOmega2     0.856;
    gamma1          0.555556;
    gamma2          0.44;
    beta1           0.075;
    beta2           0.0828;
    betaStar        0.09;
    a1              0.31;
    b1              1;
    c1              10;
    F3              false;
    decayControl    false;
    kInf            0;
    omegaInf        0;
}

No MRF models present

No finite volume options present

Starting time loop

forces forcesFish:
    rho: rhoInf
    Freestream density (rhoInf) set to 1000
    Not including porosity effects

Time = 1

smoothSolver:  Solving for Ux, Initial residual = 0.999999, Final residual = 0.020586, No Iterations 2
smoothSolver:  Solving for Uy, Initial residual = 1, Final residual = 0.0405242, No Iterations 2
smoothSolver:  Solving for Uz, Initial residual = 1, Final residual = 0.035999, No Iterations 2
GAMG:  Solving for p, Initial residual = 1, Final residual = 0.0605472, No Iterations 5
time step continuity errors : sum local = 7.23907e-06, global = -8.34108e-07, cumulative = -8.34108e-07
smoothSolver:  Solving for omega, Initial residual = 0.0111173, Final residual = 0.000457054, No Iterations 1
bounding omega, min: -6.97414 max: 10124.2 average: 98.8207
smoothSolver:  Solving for k, Initial residual = 1, Final residual = 0.043368, No Iterations 1
ExecutionTime = 1.83 s  ClockTime = 2 s

forces forcesFish write:
    Sum of forces
        Total    : (0.475594 0.0124285 -0.00428108)
        Pressure : (0.376407 0.012391 -0.00427929)
        Viscous  : (0.0991873 3.7511e-05 -1.78403e-06)
    Sum of moments
        Total    : (-1.66365e-06 -1.46016e-05 0.00856114)
        Pressure : (-1.6169e-06 -1.69616e-05 0.0085046)
        Viscous  : (-4.67429e-08 2.35997e-06 5.65384e-05)
    writing force and moment files.

Time = 2

smoothSolver:  Solving for Ux, Initial residual = 0.0230562, Final residual = 0.0010941, No Iterations 2
smoothSolver:  Solving for Uy, Initial residual = 0.32982, Final residual = 0.0257035, No Iterations 2
smoothSolver:  Solving for Uz, Initial residual = 0.281756, Final residual = 0.0230404, No Iterations 2
GAMG:  Solving for p, Initial residual = 0.116837, Final residual = 0.010119, No Iterations 3
time step continuity errors : sum local = 1.33238e-05, global = -7.66074e-07, cumulative = -1.60018e-06
smoothSolver:  Solving for omega, Initial residual = 0.00648286, Final residual = 0.000268086, No Iterations 1
smoothSolver:  Solving for k, Initial residual = 0.461968, Final residual = 0.0212201, No Iterations 1
ExecutionTime = 2.44 s  ClockTime = 3 s

forces forcesFish write:
    Sum of forces
        Total    : (0.578768 0.0155786 -0.00468953)
        Pressure : (0.482064 0.0155554 -0.00470632)
        Viscous  : (0.0967047 2.31736e-05 1.67966e-05)
    Sum of moments
        Total    : (5.66583e-07 -5.75413e-05 0.0112077)
        Pressure : (5.02414e-07 -5.88289e-05 0.0111538)
        Viscous  : (6.41683e-08 1.28765e-06 5.38941e-05)
    writing force and moment files.

Time = 3

smoothSolver:  Solving for Ux, Initial residual = 0.00452473, Final residual = 0.000228508, No Iterations 2
smoothSolver:  Solving for Uy, Initial residual = 0.167352, Final residual = 0.0127836, No Iterations 2
smoothSolver:  Solving for Uz, Initial residual = 0.156031, Final residual = 0.0125396, No Iterations 2
GAMG:  Solving for p, Initial residual = 0.321989, Final residual = 0.0115823, No Iterations 3
time step continuity errors : sum local = 8.67554e-06, global = -7.76631e-07, cumulative = -2.37681e-06
smoothSolver:  Solving for omega, Initial residual = 0.00440956, Final residual = 0.000192662, No Iterations 1
smoothSolver:  Solving for k, Initial residual = 0.274881, Final residual = 0.0131849, No Iterations 1
ExecutionTime = 2.98 s  ClockTime = 3 s

forces forcesFish write:
    Sum of forces
        Total    : (0.540049 0.0149528 -0.00398359)
        Pressure : (0.445082 0.0149454 -0.00401445)
        Viscous  : (0.0949664 7.38631e-06 3.08539e-05)
    Sum of moments
        Total    : (3.84934e-06 -8.60722e-05 0.0104135)
        Pressure : (3.69462e-06 -8.64236e-05 0.010365)
        Viscous  : (1.5472e-07 3.51446e-07 4.8476e-05)
    writing force and moment files.

Time = 4

smoothSolver:  Solving for Ux, Initial residual = 0.00236573, Final residual = 0.000119313, No Iterations 2
smoothSolver:  Solving for Uy, Initial residual = 0.110813, Final residual = 0.00831407, No Iterations 2
smoothSolver:  Solving for Uz, Initial residual = 0.0945969, Final residual = 0.00746684, No Iterations 2
GAMG:  Solving for p, Initial residual = 0.296869, Final residual = 0.0131313, No Iterations 3
time step continuity errors : sum local = 1.49875e-05, global = -6.72434e-07, cumulative = -3.04925e-06
smoothSolver:  Solving for omega, Initial residual = 0.00318606, Final residual = 0.000145359, No Iterations 1
smoothSolver:  Solving for k, Initial residual = 0.1841, Final residual = 0.00913186, No Iterations 1
ExecutionTime = 3.52 s  ClockTime = 4 s

forces forcesFish write:
    Sum of forces
        Total    : (0.422696 0.0117533 -0.00263981)
        Pressure : (0.329159 0.0117623 -0.00267801)
        Viscous  : (0.0935373 -9.00875e-06 3.82011e-05)
    Sum of moments
        Total    : (6.83822e-06 -0.000126228 0.00764876)
        Pressure : (6.61797e-06 -0.000125918 0.00760683)
        Viscous  : (2.20252e-07 -3.09642e-07 4.19239e-05)
    writing force and moment files.

Time = 5

smoothSolver:  Solving for Ux, Initial residual = 0.00143656, Final residual = 7.01471e-05, No Iterations 2
smoothSolver:  Solving for Uy, Initial residual = 0.0749206, Final residual = 0.00547597, No Iterations 2
smoothSolver:  Solving for Uz, Initial residual = 0.055342, Final residual = 0.00423555, No Iterations 2
GAMG:  Solving for p, Initial residual = 0.155698, Final residual = 0.00813538, No Iterations 3
time step continuity errors : sum local = 1.83509e-05, global = -3.18333e-07, cumulative = -3.36758e-06
smoothSolver:  Solving for omega, Initial residual = 0.00239759, Final residual = 0.0001132, No Iterations 1
smoothSolver:  Solving for k, Initial residual = 0.132696, Final residual = 0.00676136, No Iterations 1
ExecutionTime = 4.11 s  ClockTime = 4 s

forces forcesFish write:
    Sum of forces
        Total    : (0.278875 0.00779676 -0.0010807)
        Pressure : (0.186574 0.00782401 -0.00111904)
        Viscous  : (0.0923013 -2.7247e-05 3.83436e-05)
    Sum of moments
        Total    : (8.38322e-06 -0.000156323 0.00423771)
        Pressure : (8.12423e-06 -0.000155763 0.0042027)
        Viscous  : (2.58991e-07 -5.60706e-07 3.50062e-05)
    writing force and moment files.

Time = 6

smoothSolver:  Solving for Ux, Initial residual = 0.00100804, Final residual = 4.21933e-05, No Iterations 2
smoothSolver:  Solving for Uy, Initial residual = 0.0434343, Final residual = 0.00270281, No Iterations 2
smoothSolver:  Solving for Uz, Initial residual = 0.0291215, Final residual = 0.00184669, No Iterations 2
GAMG:  Solving for p, Initial residual = 0.0917256, Final residual = 0.00535712, No Iterations 3
time step continuity errors : sum local = 1.74161e-05, global = 1.96766e-07, cumulative = -3.17081e-06
smoothSolver:  Solving for omega, Initial residual = 0.0018597, Final residual = 9.02328e-05, No Iterations 1
smoothSolver:  Solving for k, Initial residual = 0.100694, Final residual = 0.00524625, No Iterations 1
ExecutionTime = 4.64 s  ClockTime = 5 s

forces forcesFish write:
    Sum of forces
        Total    : (0.148325 0.00434622 0.00023769)
        Pressure : (0.0571076 0.00439221 0.000205092)
        Viscous  : (0.0912174 -4.59897e-05 3.25974e-05)
    Sum of moments
        Total    : (8.21867e-06 -0.000135984 0.00118008)
        Pressure : (7.94822e-06 -0.000135592 0.00115153)
        Viscous  : (2.70448e-07 -3.91465e-07 2.85482e-05)
    writing force and moment files.

Time = 7

smoothSolver:  Solving for Ux, Initial residual = 0.000822384, Final residual = 2.83091e-05, No Iterations 2
smoothSolver:  Solving for Uy, Initial residual = 0.0302883, Final residual = 0.00111146, No Iterations 2
smoothSolver:  Solving for Uz, Initial residual = 0.021562, Final residual = 0.000795962, No Iterations 2
GAMG:  Solving for p, Initial residual = 0.0586826, Final residual = 0.00332248, No Iterations 3
time step continuity errors : sum local = 1.3278e-05, global = 7.13189e-07, cumulative = -2.45763e-06
smoothSolver:  Solving for omega, Initial residual = 0.00147778, Final residual = 7.32916e-05, No Iterations 1
smoothSolver:  Solving for k, Initial residual = 0.0794441, Final residual = 0.00421936, No Iterations 1
ExecutionTime = 5.17 s  ClockTime = 5 s

forces forcesFish write:
    Sum of forces
        Total    : (0.0547813 0.00192029 0.00104292)
        Pressure : (-0.0354677 0.00198207 0.00101923)
        Viscous  : (0.0902491 -6.17821e-05 2.36864e-05)
    Sum of moments
        Total    : (6.34775e-06 -5.94773e-05 -0.000955697)
        Pressure : (6.09339e-06 -5.95631e-05 -0.000979142)
        Viscous  : (2.54365e-07 8.5822e-08 2.34448e-05)
    writing force and moment files.

Time = 8

smoothSolver:  Solving for Ux, Initial residual = 0.00075812, Final residual = 2.55898e-05, No Iterations 2
smoothSolver:  Solving for Uy, Initial residual = 0.034404, Final residual = 0.00181066, No Iterations 2
smoothSolver:  Solving for Uz, Initial residual = 0.035677, Final residual = 0.0021476, No Iterations 2
GAMG:  Solving for p, Initial residual = 0.0475715, Final residual = 0.00463611, No Iterations 2
time step continuity errors : sum local = 2.05147e-05, global = 1.18057e-06, cumulative = -1.27705e-06
smoothSolver:  Solving for omega, Initial residual = 0.00119791, Final residual = 6.05189e-05, No Iterations 1
smoothSolver:  Solving for k, Initial residual = 0.0644214, Final residual = 0.00347964, No Iterations 1
ExecutionTime = 5.66 s  ClockTime = 6 s

forces forcesFish write:
    Sum of forces
        Total    : (0.0100816 0.000669375 0.000886359)
        Pressure : (-0.0792806 0.000740356 0.000871864)
        Viscous  : (0.0893622 -7.09812e-05 1.4495e-05)
    Sum of moments
        Total    : (5.02485e-06 9.86957e-05 -0.00191088)
        Pressure : (4.80636e-06 9.80553e-05 -0.00193127)
        Viscous  : (2.18491e-07 6.40392e-07 2.03921e-05)
    writing force and moment files.

Time = 9

smoothSolver:  Solving for Ux, Initial residual = 0.000726745, Final residual = 2.49576e-05, No Iterations 2
smoothSolver:  Solving for Uy, Initial residual = 0.0342246, Final residual = 0.0020104, No Iterations 2
smoothSolver:  Solving for Uz, Initial residual = 0.0463901, Final residual = 0.00304523, No Iterations 2
GAMG:  Solving for p, Initial residual = 0.0513788, Final residual = 0.00370417, No Iterations 2
time step continuity errors : sum local = 1.68906e-05, global = 1.70794e-06, cumulative = 4.30888e-07
smoothSolver:  Solving for omega, Initial residual = 0.000986707, Final residual = 5.06231e-05, No Iterations 1
smoothSolver:  Solving for k, Initial residual = 0.0535045, Final residual = 0.00293298, No Iterations 1
ExecutionTime = 6.14 s  ClockTime = 6 s

forces forcesFish write:
    Sum of forces
        Total    : (0.00271893 0.000332302 0.00050659)
        Pressure : (-0.0857992 0.000404375 0.000499344)
        Viscous  : (0.0885181 -7.20731e-05 7.24538e-06)
    Sum of moments
        Total    : (2.39338e-06 0.000227822 -0.00197465)
        Pressure : (2.22237e-06 0.000226713 -0.00199404)
        Viscous  : (1.71009e-07 1.10919e-06 1.93924e-05)
    writing force and moment files.

Time = 10

smoothSolver:  Solving for Ux, Initial residual = 0.000677264, Final residual = 2.28319e-05, No Iterations 2
smoothSolver:  Solving for Uy, Initial residual = 0.0300762, Final residual = 0.00178836, No Iterations 2
smoothSolver:  Solving for Uz, Initial residual = 0.0500589, Final residual = 0.00331236, No Iterations 2
GAMG:  Solving for p, Initial residual = 0.059113, Final residual = 0.00439495, No Iterations 2
time step continuity errors : sum local = 1.97815e-05, global = 2.19192e-06, cumulative = 2.62281e-06
smoothSolver:  Solving for omega, Initial residual = 0.000823363, Final residual = 4.28253e-05, No Iterations 1
smoothSolver:  Solving for k, Initial residual = 0.0451926, Final residual = 0.00250976, No Iterations 1
ExecutionTime = 6.62 s  ClockTime = 7 s

forces forcesFish write:
    Sum of forces
        Total    : (0.0201765 0.000471601 0.000182052)
        Pressure : (-0.0674996 0.000537335 0.00017898)
        Viscous  : (0.087676 -6.57339e-05 3.07194e-06)
    Sum of moments
        Total    : (-1.08055e-06 0.000275591 -0.00146286)
        Pressure : (-1.20136e-06 0.000274163 -0.0014828)
        Viscous  : (1.20803e-07 1.42842e-06 1.99433e-05)
    writing force and moment files.

Time = 11

smoothSolver:  Solving for Ux, Initial residual = 0.000597503, Final residual = 1.93546e-05, No Iterations 2
smoothSolver:  Solving for Uy, Initial residual = 0.0247547, Final residual = 0.00139705, No Iterations 2
smoothSolver:  Solving for Uz, Initial residual = 0.0457974, Final residual = 0.00289426, No Iterations 2
GAMG:  Solving for p, Initial residual = 0.0619835, Final residual = 0.0049763, No Iterations 2
time step continuity errors : sum local = 2.13812e-05, global = 2.45139e-06, cumulative = 5.0742e-06
smoothSolver:  Solving for omega, Initial residual = 0.000694453, Final residual = 3.65754e-05, No Iterations 1
smoothSolver:  Solving for k, Initial residual = 0.0387537, Final residual = 0.00217695, No Iterations 1
ExecutionTime = 7.1 s  ClockTime = 7 s

forces forcesFish write:
    Sum of forces
        Total    : (0.0507667 0.000716712 -2.39793e-05)
        Pressure : (-0.0360489 0.000770438 -2.61846e-05)
        Viscous  : (0.0868156 -5.37266e-05 2.20527e-06)
    Sum of moments
        Total    : (-4.46695e-06 0.000248736 -0.000679105)
        Pressure : (-4.54333e-06 0.000247175 -0.000700692)
        Viscous  : (7.63756e-08 1.56091e-06 2.15864e-05)
    writing force and moment files.

Time = 12

smoothSolver:  Solving for Ux, Initial residual = 0.000505863, Final residual = 1.53645e-05, No Iterations 2
smoothSolver:  Solving for Uy, Initial residual = 0.0201818, Final residual = 0.000955898, No Iterations 2
smoothSolver:  Solving for Uz, Initial residual = 0.0355533, Final residual = 0.0019202, No Iterations 2
GAMG:  Solving for p, Initial residual = 0.0615878, Final residual = 0.00518999, No Iterations 2
time step continuity errors : sum local = 2.06039e-05, global = 2.48032e-06, cumulative = 7.55453e-06
smoothSolver:  Solving for omega, Initial residual = 0.000591036, Final residual = 3.14683e-05, No Iterations 1
smoothSolver:  Solving for k, Initial residual = 0.0335865, Final residual = 0.0019057, No Iterations 1
ExecutionTime = 7.62 s  ClockTime = 8 s

forces forcesFish write:
    Sum of forces
        Total    : (0.0836855 0.000860519 -8.97029e-05)
        Pressure : (-0.00225105 0.000898962 -9.38194e-05)
        Viscous  : (0.0859366 -3.8443e-05 4.11648e-06)
    Sum of moments
        Total    : (-7.00699e-06 0.000163114 0.000111433)
        Pressure : (-7.05079e-06 0.000161602 8.7596e-05)
        Viscous  : (4.3799e-08 1.51175e-06 2.3837e-05)
    writing force and moment files.

Time = 13

smoothSolver:  Solving for Ux, Initial residual = 0.000424797, Final residual = 1.21733e-05, No Iterations 2
smoothSolver:  Solving for Uy, Initial residual = 0.0194306, Final residual = 0.00070241, No Iterations 2
smoothSolver:  Solving for Uz, Initial residual = 0.0260872, Final residual = 0.000981566, No Iterations 2
GAMG:  Solving for p, Initial residual = 0.0586233, Final residual = 0.00489703, No Iterations 2
time step continuity errors : sum local = 1.76036e-05, global = 2.28798e-06, cumulative = 9.84251e-06
smoothSolver:  Solving for omega, Initial residual = 0.000506923, Final residual = 2.72378e-05, No Iterations 1
smoothSolver:  Solving for k, Initial residual = 0.0293949, Final residual = 0.00168244, No Iterations 1
ExecutionTime = 8.18 s  ClockTime = 8 s

forces forcesFish write:
    Sum of forces
        Total    : (0.110989 0.000851987 -3.60072e-05)
        Pressure : (0.0259379 0.000874605 -4.37266e-05)
        Viscous  : (0.0850507 -2.26178e-05 7.71946e-06)
    Sum of moments
        Total    : (-8.24043e-06 4.64434e-05 0.000733061)
        Pressure : (-8.26689e-06 4.51125e-05 0.000706854)
        Viscous  : (2.64647e-08 1.33082e-06 2.62068e-05)
    writing force and moment files.

Time = 14

smoothSolver:  Solving for Ux, Initial residual = 0.000369719, Final residual = 1.04691e-05, No Iterations 2
smoothSolver:  Solving for Uy, Initial residual = 0.0249573, Final residual = 0.000984208, No Iterations 2
smoothSolver:  Solving for Uz, Initial residual = 0.0257591, Final residual = 0.00104138, No Iterations 2
GAMG:  Solving for p, Initial residual = 0.0564939, Final residual = 0.00417629, No Iterations 2
time step continuity errors : sum local = 1.35763e-05, global = 1.92241e-06, cumulative = 1.17649e-05
smoothSolver:  Solving for omega, Initial residual = 0.000437537, Final residual = 2.36885e-05, No Iterations 1
smoothSolver:  Solving for k, Initial residual = 0.0259056, Final residual = 0.00149385, No Iterations 1
ExecutionTime = 8.7 s  ClockTime = 9 s

forces forcesFish write:
    Sum of forces
        Total    : (0.128432 0.000762282 9.19321e-05)
        Pressure : (0.0442565 0.000770911 8.0139e-05)
        Viscous  : (0.0841757 -8.6289e-06 1.17931e-05)
    Sum of moments
        Total    : (-8.06759e-06 -6.99678e-05 0.00110891)
        Pressure : (-8.09153e-06 -7.10575e-05 0.00108061)
        Viscous  : (2.39492e-08 1.08961e-06 2.83e-05)
    writing force and moment files.

Time = 15

smoothSolver:  Solving for Ux, Initial residual = 0.000349106, Final residual = 9.46173e-06, No Iterations 2
smoothSolver:  Solving for Uy, Initial residual = 0.0346446, Final residual = 0.00153532, No Iterations 2
smoothSolver:  Solving for Uz, Initial residual = 0.0265221, Final residual = 0.00126777, No Iterations 2
GAMG:  Solving for p, Initial residual = 0.0569662, Final residual = 0.00359021, No Iterations 2
time step continuity errors : sum local = 1.08062e-05, global = 1.51991e-06, cumulative = 1.32848e-05
smoothSolver:  Solving for omega, Initial residual = 0.000379585, Final residual = 2.06803e-05, No Iterations 1
smoothSolver:  Solving for k, Initial residual = 0.022983, Final residual = 0.00133381, No Iterations 1
ExecutionTime = 9.21 s  ClockTime = 9 s

forces forcesFish write:
    Sum of forces
        Total    : (0.135153 0.000717165 0.000264048)
        Pressure : (0.0518235 0.000715215 0.000248749)
        Viscous  : (0.0833291 1.94914e-06 1.52989e-05)
    Sum of moments
        Total    : (-6.6864e-06 -0.000161829 0.00124506)
        Pressure : (-6.7194e-06 -0.000162675 0.0012152)
        Viscous  : (3.30091e-08 8.45918e-07 2.98661e-05)
    writing force and moment files.

Time = 16

smoothSolver:  Solving for Ux, Initial residual = 0.000330781, Final residual = 8.58238e-06, No Iterations 2
smoothSolver:  Solving for Uy, Initial residual = 0.0423729, Final residual = 0.00189425, No Iterations 2
smoothSolver:  Solving for Uz, Initial residual = 0.0248054, Final residual = 0.00120851, No Iterations 2
GAMG:  Solving for p, Initial residual = 0.0606795, Final residual = 0.00381661, No Iterations 2
time step continuity errors : sum local = 1.11028e-05, global = 1.0411e-06, cumulative = 1.43259e-05
smoothSolver:  Solving for omega, Initial residual = 0.000330681, Final residual = 1.81087e-05, No Iterations 1
smoothSolver:  Solving for k, Initial residual = 0.0204877, Final residual = 0.00119551, No Iterations 1
ExecutionTime = 9.72 s  ClockTime = 10 s

forces forcesFish write:
    Sum of forces
        Total    : (0.133642 0.000788107 0.000394316)
        Pressure : (0.0511181 0.000779538 0.000376744)
        Viscous  : (0.082524 8.56954e-06 1.75715e-05)
    Sum of moments
        Total    : (-4.4416e-06 -0.000206976 0.00121226)
        Pressure : (-4.49049e-06 -0.000207623 0.00118142)
        Viscous  : (4.88917e-08 6.4676e-07 3.08456e-05)
    writing force and moment files.

Time = 17

smoothSolver:  Solving for Ux, Initial residual = 0.000303895, Final residual = 7.61144e-06, No Iterations 2
smoothSolver:  Solving for Uy, Initial residual = 0.0319823, Final residual = 0.00135069, No Iterations 2
smoothSolver:  Solving for Uz, Initial residual = 0.0212304, Final residual = 0.000978339, No Iterations 2
GAMG:  Solving for p, Initial residual = 0.0616863, Final residual = 0.00361132, No Iterations 2
time step continuity errors : sum local = 1.05375e-05, global = 3.77011e-07, cumulative = 1.47029e-05
smoothSolver:  Solving for omega, Initial residual = 0.000289001, Final residual = 1.58802e-05, No Iterations 1
smoothSolver:  Solving for k, Initial residual = 0.0183536, Final residual = 0.00107603, No Iterations 1
ExecutionTime = 10.2 s  ClockTime = 10 s

forces forcesFish write:
    Sum of forces
        Total    : (0.127138 0.00100564 0.000396857)
        Pressure : (0.0453663 0.00099408 0.000378451)
        Viscous  : (0.081772 1.15621e-05 1.8406e-05)
    Sum of moments
        Total    : (-1.82444e-06 -0.00019758 0.00108168)
        Pressure : (-1.89026e-06 -0.000198104 0.00105039)
        Viscous  : (6.58225e-08 5.23915e-07 3.12868e-05)
    writing force and moment files.

Time = 18

smoothSolver:  Solving for Ux, Initial residual = 0.000275296, Final residual = 6.66195e-06, No Iterations 2
smoothSolver:  Solving for Uy, Initial residual = 0.0244836, Final residual = 0.000905101, No Iterations 2
smoothSolver:  Solving for Uz, Initial residual = 0.0170488, Final residual = 0.000676834, No Iterations 2
GAMG:  Solving for p, Initial residual = 0.0573723, Final residual = 0.00320552, No Iterations 2
time step continuity errors : sum local = 9.6744e-06, global = -2.82845e-07, cumulative = 1.44201e-05
smoothSolver:  Solving for omega, Initial residual = 0.000253257, Final residual = 1.39449e-05, No Iterations 1
smoothSolver:  Solving for k, Initial residual = 0.0164991, Final residual = 0.000971206, No Iterations 1
ExecutionTime = 10.68 s  ClockTime = 11 s

forces forcesFish write:
    Sum of forces
        Total    : (0.11836 0.00139451 0.000269482)
        Pressure : (0.0372842 0.00138277 0.000251558)
        Viscous  : (0.0810758 1.17409e-05 1.7924e-05)
    Sum of moments
        Total    : (7.20886e-07 -0.000139907 0.000918971)
        Pressure : (6.4136e-07 -0.00014039 0.0008877)
        Viscous  : (7.95258e-08 4.83624e-07 3.12715e-05)
    writing force and moment files.

Time = 19

smoothSolver:  Solving for Ux, Initial residual = 0.000248117, Final residual = 5.798e-06, No Iterations 2
smoothSolver:  Solving for Uy, Initial residual = 0.0195517, Final residual = 0.00056134, No Iterations 2
smoothSolver:  Solving for Uz, Initial residual = 0.0138104, Final residual = 0.000410371, No Iterations 2
GAMG:  Solving for p, Initial residual = 0.0500212, Final residual = 0.00274532, No Iterations 2
time step continuity errors : sum local = 8.71255e-06, global = -7.81058e-07, cumulative = 1.3639e-05
smoothSolver:  Solving for omega, Initial residual = 0.000222455, Final residual = 1.22651e-05, No Iterations 1
smoothSolver:  Solving for k, Initial residual = 0.0148903, Final residual = 0.000879481, No Iterations 1
ExecutionTime = 11.19 s  ClockTime = 11 s

forces forcesFish write:
    Sum of forces
        Total    : (0.109762 0.00189437 5.10656e-05)
        Pressure : (0.0293297 0.00188393 3.44776e-05)
        Viscous  : (0.0804323 1.04401e-05 1.65879e-05)
    Sum of moments
        Total    : (2.77424e-06 -5.26232e-05 0.00077327)
        Pressure : (2.68666e-06 -5.31401e-05 0.00074231)
        Viscous  : (8.75887e-08 5.16922e-07 3.09598e-05)
    writing force and moment files.

Time = 20

smoothSolver:  Solving for Ux, Initial residual = 0.000218785, Final residual = 5.04565e-06, No Iterations 2
smoothSolver:  Solving for Uy, Initial residual = 0.0175878, Final residual = 0.000431423, No Iterations 2
smoothSolver:  Solving for Uz, Initial residual = 0.0127963, Final residual = 0.00037306, No Iterations 2
GAMG:  Solving for p, Initial residual = 0.0419935, Final residual = 0.00229482, No Iterations 2
time step continuity errors : sum local = 7.64674e-06, global = -1.20521e-06, cumulative = 1.24338e-05
smoothSolver:  Solving for omega, Initial residual = 0.000195794, Final residual = 1.0804e-05, No Iterations 1
smoothSolver:  Solving for k, Initial residual = 0.0134713, Final residual = 0.000797862, No Iterations 1
ExecutionTime = 11.68 s  ClockTime = 12 s

forces forcesFish write:
    Sum of forces
        Total    : (0.102992 0.00239258 -0.000198802)
        Pressure : (0.023157 0.00238373 -0.000213703)
        Viscous  : (0.0798347 8.84384e-06 1.49012e-05)
    Sum of moments
        Total    : (4.05479e-06 4.01453e-05 0.000668543)
        Pressure : (3.96552e-06 3.95492e-05 0.000637989)
        Viscous  : (8.92713e-08 5.96155e-07 3.05549e-05)
    writing force and moment files.

Time = 21

smoothSolver:  Solving for Ux, Initial residual = 0.000189511, Final residual = 4.45858e-06, No Iterations 2
smoothSolver:  Solving for Uy, Initial residual = 0.0177999, Final residual = 0.000494389, No Iterations 2
smoothSolver:  Solving for Uz, Initial residual = 0.0126861, Final residual = 0.000436704, No Iterations 2
GAMG:  Solving for p, Initial residual = 0.0365266, Final residual = 0.00195648, No Iterations 2
time step continuity errors : sum local = 6.7542e-06, global = -1.52871e-06, cumulative = 1.09051e-05
smoothSolver:  Solving for omega, Initial residual = 0.000172604, Final residual = 9.52946e-06, No Iterations 1
smoothSolver:  Solving for k, Initial residual = 0.0122251, Final residual = 0.000725593, No Iterations 1
ExecutionTime = 12.17 s  ClockTime = 12 s

forces forcesFish write:
    Sum of forces
        Total    : (0.0987622 0.00276885 -0.000418876)
        Pressure : (0.0194876 0.00276105 -0.000432152)
        Viscous  : (0.0792747 7.79621e-06 1.32759e-05)
    Sum of moments
        Total    : (4.45577e-06 0.000115879 0.000607005)
        Pressure : (4.37016e-06 0.000115185 0.000576794)
        Viscous  : (8.56095e-08 6.93831e-07 3.0211e-05)
    writing force and moment files.

Time = 22

smoothSolver:  Solving for Ux, Initial residual = 0.000162797, Final residual = 4.00805e-06, No Iterations 2
smoothSolver:  Solving for Uy, Initial residual = 0.0182124, Final residual = 0.000558301, No Iterations 2
smoothSolver:  Solving for Uz, Initial residual = 0.0123845, Final residual = 0.00046967, No Iterations 2
GAMG:  Solving for p, Initial residual = 0.033627, Final residual = 0.00187663, No Iterations 2
time step continuity errors : sum local = 6.58781e-06, global = -1.7589e-06, cumulative = 9.14622e-06
smoothSolver:  Solving for omega, Initial residual = 0.000152322, Final residual = 8.41344e-06, No Iterations 1
smoothSolver:  Solving for k, Initial residual = 0.01111, Final residual = 0.000660389, No Iterations 1
ExecutionTime = 12.69 s  ClockTime = 13 s

forces forcesFish write:
    Sum of forces
        Total    : (0.0969226 0.00295458 -0.000568729)
        Pressure : (0.0181775 0.00294681 -0.000580804)
        Viscous  : (0.0787451 7.7665e-06 1.20753e-05)
    Sum of moments
        Total    : (4.04246e-06 0.000161508 0.000577789)
        Pressure : (3.96412e-06 0.000160731 0.000547782)
        Viscous  : (7.83397e-08 7.77198e-07 3.00067e-05)
    writing force and moment files.

Time = 23

smoothSolver:  Solving for Ux, Initial residual = 0.000142368, Final residual = 3.5921e-06, No Iterations 2
smoothSolver:  Solving for Uy, Initial residual = 0.0179356, Final residual = 0.000541517, No Iterations 2
smoothSolver:  Solving for Uz, Initial residual = 0.0116562, Final residual = 0.000437274, No Iterations 2
GAMG:  Solving for p, Initial residual = 0.0323046, Final residual = 0.0017644, No Iterations 2
time step continuity errors : sum local = 6.18901e-06, global = -1.79696e-06, cumulative = 7.34926e-06
smoothSolver:  Solving for omega, Initial residual = 0.000134519, Final residual = 7.43584e-06, No Iterations 1
smoothSolver:  Solving for k, Initial residual = 0.0101187, Final residual = 0.000601997, No Iterations 1
ExecutionTime = 13.4 s  ClockTime = 14 s

forces forcesFish write:
    Sum of forces
        Total    : (0.096768 0.00295884 -0.000632428)
        Pressure : (0.0185283 0.00294997 -0.000643924)
        Viscous  : (0.0782398 8.86912e-06 1.14959e-05)
    Sum of moments
        Total    : (3.04303e-06 0.000176427 0.000565733)
        Pressure : (2.97415e-06 0.000175601 0.000535766)
        Viscous  : (6.88811e-08 8.25637e-07 2.99666e-05)
    writing force and moment files.

Time = 24

smoothSolver:  Solving for Ux, Initial residual = 0.000128084, Final residual = 3.18863e-06, No Iterations 2
smoothSolver:  Solving for Uy, Initial residual = 0.0168099, Final residual = 0.000456766, No Iterations 2
smoothSolver:  Solving for Uz, Initial residual = 0.0105414, Final residual = 0.000354904, No Iterations 2
GAMG:  Solving for p, Initial residual = 0.0308906, Final residual = 0.00157777, No Iterations 2
time step continuity errors : sum local = 5.45351e-06, global = -1.71332e-06, cumulative = 5.63593e-06
smoothSolver:  Solving for omega, Initial residual = 0.000118819, Final residual = 6.57311e-06, No Iterations 1
smoothSolver:  Solving for k, Initial residual = 0.00922208, Final residual = 0.000548805, No Iterations 1
ExecutionTime = 14.16 s  ClockTime = 14 s

forces forcesFish write:
    Sum of forces
        Total    : (0.0976197 0.0027824 -0.000593326)
        Pressure : (0.0198663 0.00277146 -0.000604853)
        Viscous  : (0.0777533 1.09416e-05 1.1527e-05)
    Sum of moments
        Total    : (1.68862e-06 0.000160116 0.000556525)
        Pressure : (1.62898e-06 0.000159287 0.000526431)
        Viscous  : (5.96361e-08 8.29034e-07 3.00939e-05)
    writing force and moment files.

Time = 25

smoothSolver:  Solving for Ux, Initial residual = 0.00012139, Final residual = 2.83734e-06, No Iterations 2
smoothSolver:  Solving for Uy, Initial residual = 0.0151857, Final residual = 0.000356095, No Iterations 2
smoothSolver:  Solving for Uz, Initial residual = 0.00924562, Final residual = 0.000249854, No Iterations 2
GAMG:  Solving for p, Initial residual = 0.0295553, Final residual = 0.00141167, No Iterations 2
time step continuity errors : sum local = 4.76336e-06, global = -1.5266e-06, cumulative = 4.10933e-06
smoothSolver:  Solving for omega, Initial residual = 0.000104911, Final residual = 5.80769e-06, No Iterations 1
smoothSolver:  Solving for k, Initial residual = 0.00841515, Final residual = 0.000500643, No Iterations 1
ExecutionTime = 14.84 s  ClockTime = 15 s

forces forcesFish write:
    Sum of forces
        Total    : (0.0988376 0.00245667 -0.00045878)
        Pressure : (0.0215548 0.00244296 -0.000470743)
        Viscous  : (0.0772829 1.37107e-05 1.1963e-05)
    Sum of moments
        Total    : (2.5635e-07 0.000117629 0.000541128)
        Pressure : (2.04018e-07 0.000116838 0.000510778)
        Viscous  : (5.23321e-08 7.91551e-07 3.03499e-05)
    writing force and moment files.

Time = 26

smoothSolver:  Solving for Ux, Initial residual = 0.000119796, Final residual = 2.54857e-06, No Iterations 2
smoothSolver:  Solving for Uy, Initial residual = 0.0132085, Final residual = 0.000280822, No Iterations 2
smoothSolver:  Solving for Uz, Initial residual = 0.00827898, Final residual = 0.000181174, No Iterations 2
GAMG:  Solving for p, Initial residual = 0.0282247, Final residual = 0.00126817, No Iterations 2
time step continuity errors : sum local = 4.16184e-06, global = -1.25327e-06, cumulative = 2.85607e-06
smoothSolver:  Solving for omega, Initial residual = 9.25492e-05, Final residual = 5.12594e-06, No Iterations 1
smoothSolver:  Solving for k, Initial residual = 0.00768011, Final residual = 0.000456539, No Iterations 1
ExecutionTime = 15.46 s  ClockTime = 16 s

forces forcesFish write:
    Sum of forces
        Total    : (0.0999153 0.00205291 -0.000263528)
        Pressure : (0.0230879 0.00203609 -0.000276245)
        Viscous  : (0.0768274 1.68218e-05 1.27172e-05)
    Sum of moments
        Total    : (-9.78762e-07 6.0663e-05 0.000517918)
        Pressure : (-1.02618e-06 5.99389e-05 0.000487233)
        Viscous  : (4.74226e-08 7.24095e-07 3.06855e-05)
    writing force and moment files.

Time = 27

smoothSolver:  Solving for Ux, Initial residual = 0.000116918, Final residual = 2.30041e-06, No Iterations 2
smoothSolver:  Solving for Uy, Initial residual = 0.0110787, Final residual = 0.000235548, No Iterations 2
smoothSolver:  Solving for Uz, Initial residual = 0.00760478, Final residual = 0.000158334, No Iterations 2
GAMG:  Solving for p, Initial residual = 0.0262897, Final residual = 0.00114049, No Iterations 2
time step continuity errors : sum local = 3.65146e-06, global = -9.31703e-07, cumulative = 1.92436e-06
smoothSolver:  Solving for omega, Initial residual = 8.1527e-05, Final residual = 4.51883e-06, No Iterations 1
smoothSolver:  Solving for k, Initial residual = 0.00701075, Final residual = 0.000416197, No Iterations 1
ExecutionTime = 16.12 s  ClockTime = 16 s

forces forcesFish write:
    Sum of forces
        Total    : (0.100555 0.00165813 -5.57105e-05)
        Pressure : (0.0241681 0.00163829 -6.92435e-05)
        Viscous  : (0.0763874 1.98424e-05 1.3533e-05)
    Sum of moments
        Total    : (-1.81391e-06 3.36918e-06 0.000491148)
        Pressure : (-1.85855e-06 2.72785e-06 0.000460097)
        Viscous  : (4.46431e-08 6.41322e-07 3.10508e-05)
    writing force and moment files.

Time = 28

smoothSolver:  Solving for Ux, Initial residual = 0.000111724, Final residual = 2.08269e-06, No Iterations 2
smoothSolver:  Solving for Uy, Initial residual = 0.00905754, Final residual = 0.000202486, No Iterations 2
smoothSolver:  Solving for Uz, Initial residual = 0.00691849, Final residual = 0.00015346, No Iterations 2
GAMG:  Solving for p, Initial residual = 0.0241865, Final residual = 0.00107653, No Iterations 2
time step continuity errors : sum local = 3.3915e-06, global = -5.94153e-07, cumulative = 1.33021e-06
smoothSolver:  Solving for omega, Initial residual = 7.16775e-05, Final residual = 3.97928e-06, No Iterations 1
smoothSolver:  Solving for k, Initial residual = 0.00639803, Final residual = 0.000379135, No Iterations 1
ExecutionTime = 16.78 s  ClockTime = 17 s

forces forcesFish write:
    Sum of forces
        Total    : (0.10067 0.00134711 0.000120745)
        Pressure : (0.0247058 0.00132448 0.000106543)
        Viscous  : (0.0759638 2.26353e-05 1.42019e-05)
    Sum of moments
        Total    : (-2.16131e-06 -4.23914e-05 0.000467253)
        Pressure : (-2.20422e-06 -4.29526e-05 0.000435857)
        Viscous  : (4.29078e-08 5.61141e-07 3.13955e-05)
    writing force and moment files.

Time = 29

smoothSolver:  Solving for Ux, Initial residual = 0.000104128, Final residual = 1.0383e-05, No Iterations 1
smoothSolver:  Solving for Uy, Initial residual = 0.00741208, Final residual = 0.000170899, No Iterations 2
smoothSolver:  Solving for Uz, Initial residual = 0.00617406, Final residual = 0.000142795, No Iterations 2
GAMG:  Solving for p, Initial residual = 0.0225828, Final residual = 0.00111814, No Iterations 2
time step continuity errors : sum local = 3.50382e-06, global = -2.4603e-07, cumulative = 1.08418e-06
smoothSolver:  Solving for omega, Initial residual = 6.28536e-05, Final residual = 3.49669e-06, No Iterations 1
smoothSolver:  Solving for k, Initial residual = 0.00583384, Final residual = 0.000344927, No Iterations 1
ExecutionTime = 17.44 s  ClockTime = 18 s

forces forcesFish write:
    Sum of forces
        Total    : (0.100385 0.00115113 0.000244635)
        Pressure : (0.0248 0.00112602 0.00022999)
        Viscous  : (0.0755846 2.51135e-05 1.46443e-05)
    Sum of moments
        Total    : (-2.06974e-06 -7.19399e-05 0.000451186)
        Pressure : (-2.11096e-06 -7.24354e-05 0.000419455)
        Viscous  : (4.12164e-08 4.95496e-07 3.17307e-05)
    writing force and moment files.

Time = 30

smoothSolver:  Solving for Ux, Initial residual = 9.67877e-05, Final residual = 9.65019e-06, No Iterations 1
smoothSolver:  Solving for Uy, Initial residual = 0.00609741, Final residual = 0.000138144, No Iterations 2
smoothSolver:  Solving for Uz, Initial residual = 0.00547354, Final residual = 0.000121868, No Iterations 2
GAMG:  Solving for p, Initial residual = 0.0208372, Final residual = 0.00106495, No Iterations 2
time step continuity errors : sum local = 3.35178e-06, global = 1.09038e-07, cumulative = 1.19322e-06
smoothSolver:  Solving for omega, Initial residual = 5.4954e-05, Final residual = 3.06565e-06, No Iterations 1
smoothSolver:  Solving for k, Initial residual = 0.00531547, Final residual = 0.00031344, No Iterations 1
ExecutionTime = 18.16 s  ClockTime = 18 s

forces forcesFish write:
    Sum of forces
        Total    : (0.0998135 0.00105903 0.000312941)
        Pressure : (0.024591 0.00103185 0.000298127)
        Viscous  : (0.0752225 2.71777e-05 1.48136e-05)
    Sum of moments
        Total    : (-1.65007e-06 -8.56594e-05 0.00044253)
        Pressure : (-1.6897e-06 -8.61056e-05 0.00041052)
        Viscous  : (3.96315e-08 4.46173e-07 3.20104e-05)
    writing force and moment files.

Time = 31

smoothSolver:  Solving for Ux, Initial residual = 9.06283e-05, Final residual = 9.02616e-06, No Iterations 1
smoothSolver:  Solving for Uy, Initial residual = 0.00510586, Final residual = 0.000104246, No Iterations 2
smoothSolver:  Solving for Uz, Initial residual = 0.00487648, Final residual = 9.4812e-05, No Iterations 2
GAMG:  Solving for p, Initial residual = 0.0190246, Final residual = 0.000938466, No Iterations 2
time step continuity errors : sum local = 2.98547e-06, global = 3.91677e-07, cumulative = 1.5849e-06
smoothSolver:  Solving for omega, Initial residual = 4.78865e-05, Final residual = 2.68265e-06, No Iterations 1
smoothSolver:  Solving for k, Initial residual = 0.00483306, Final residual = 0.000284125, No Iterations 1
ExecutionTime = 18.88 s  ClockTime = 19 s

forces forcesFish write:
    Sum of forces
        Total    : (0.0990947 0.00106411 0.000320823)
        Pressure : (0.0242175 0.00103525 0.000306038)
        Viscous  : (0.0748772 2.88657e-05 1.47848e-05)
    Sum of moments
        Total    : (-1.01102e-06 -8.3632e-05 0.000441709)
        Pressure : (-1.04812e-06 -8.40457e-05 0.000409487)
        Viscous  : (3.70998e-08 4.13674e-07 3.22219e-05)
    writing force and moment files.

Time = 32

smoothSolver:  Solving for Ux, Initial residual = 8.58366e-05, Final residual = 8.53411e-06, No Iterations 1
smoothSolver:  Solving for Uy, Initial residual = 0.00448342, Final residual = 0.000401334, No Iterations 1
smoothSolver:  Solving for Uz, Initial residual = 0.00450207, Final residual = 0.000416235, No Iterations 1
GAMG:  Solving for p, Initial residual = 0.017066, Final residual = 0.000799428, No Iterations 2
time step continuity errors : sum local = 2.57965e-06, global = 5.76591e-07, cumulative = 2.16149e-06
smoothSolver:  Solving for omega, Initial residual = 4.15693e-05, Final residual = 2.34238e-06, No Iterations 1
smoothSolver:  Solving for k, Initial residual = 0.00438678, Final residual = 0.000257024, No Iterations 1
ExecutionTime = 19.54 s  ClockTime = 20 s

forces forcesFish write:
    Sum of forces
        Total    : (0.0983559 0.001133 0.000279746)
        Pressure : (0.0238077 0.00110302 0.000265135)
        Viscous  : (0.0745482 2.99876e-05 1.46114e-05)
    Sum of moments
        Total    : (-3.11139e-07 -7.02196e-05 0.000445244)
        Pressure : (-3.44952e-07 -7.06199e-05 0.000412981)
        Viscous  : (3.38132e-08 4.00237e-07 3.2263e-05)
    writing force and moment files.

Time = 33

smoothSolver:  Solving for Ux, Initial residual = 8.02156e-05, Final residual = 8.02005e-06, No Iterations 1
smoothSolver:  Solving for Uy, Initial residual = 0.0041999, Final residual = 0.000342658, No Iterations 1
smoothSolver:  Solving for Uz, Initial residual = 0.00434708, Final residual = 0.000392248, No Iterations 1
GAMG:  Solving for p, Initial residual = 0.01545, Final residual = 0.000671517, No Iterations 2
time step continuity errors : sum local = 2.1968e-06, global = 6.28203e-07, cumulative = 2.78969e-06
smoothSolver:  Solving for omega, Initial residual = 3.59371e-05, Final residual = 2.04115e-06, No Iterations 1
smoothSolver:  Solving for k, Initial residual = 0.00397131, Final residual = 0.000231851, No Iterations 1
ExecutionTime = 20.17 s  ClockTime = 20 s

forces forcesFish write:
    Sum of forces
        Total    : (0.0976682 0.00124164 0.000203674)
        Pressure : (0.0234336 0.00121063 0.000189275)
        Viscous  : (0.0742345 3.10121e-05 1.43988e-05)
    Sum of moments
        Total    : (3.38188e-07 -4.9426e-05 0.000451311)
        Pressure : (3.08249e-07 -4.9817e-05 0.000419044)
        Viscous  : (2.99391e-08 3.91001e-07 3.2267e-05)
    writing force and moment files.

Time = 34

smoothSolver:  Solving for Ux, Initial residual = 7.25879e-05, Final residual = 1.37247e-06, No Iterations 2
smoothSolver:  Solving for Uy, Initial residual = 0.00394244, Final residual = 0.000318235, No Iterations 1
smoothSolver:  Solving for Uz, Initial residual = 0.00415512, Final residual = 0.000382936, No Iterations 1
GAMG:  Solving for p, Initial residual = 0.0140874, Final residual = 0.000575889, No Iterations 2
time step continuity errors : sum local = 1.90604e-06, global = 5.34723e-07, cumulative = 3.32441e-06
smoothSolver:  Solving for omega, Initial residual = 3.09331e-05, Final residual = 1.77667e-06, No Iterations 1
smoothSolver:  Solving for k, Initial residual = 0.00358328, Final residual = 0.000208432, No Iterations 1
ExecutionTime = 20.76 s  ClockTime = 21 s

forces forcesFish write:
    Sum of forces
        Total    : (0.0970296 0.00135916 0.000109892)
        Pressure : (0.0231158 0.0013272 9.56834e-05)
        Viscous  : (0.0739138 3.19584e-05 1.42089e-05)
    Sum of moments
        Total    : (8.48763e-07 -2.57246e-05 0.000455922)
        Pressure : (8.2352e-07 -2.61079e-05 0.000423712)
        Viscous  : (2.5243e-08 3.83305e-07 3.22095e-05)
    writing force and moment files.

Time = 35

smoothSolver:  Solving for Ux, Initial residual = 6.21226e-05, Final residual = 1.25718e-06, No Iterations 2
smoothSolver:  Solving for Uy, Initial residual = 0.00363068, Final residual = 0.00029777, No Iterations 1
smoothSolver:  Solving for Uz, Initial residual = 0.00388889, Final residual = 0.0003695, No Iterations 1
GAMG:  Solving for p, Initial residual = 0.0129086, Final residual = 0.000506712, No Iterations 2
time step continuity errors : sum local = 1.69052e-06, global = 4.11782e-07, cumulative = 3.73619e-06
smoothSolver:  Solving for omega, Initial residual = 2.64981e-05, Final residual = 1.54398e-06, No Iterations 1
smoothSolver:  Solving for k, Initial residual = 0.00322204, Final residual = 0.000186766, No Iterations 1
ExecutionTime = 21.41 s  ClockTime = 22 s

forces forcesFish write:
    Sum of forces
        Total    : (0.0964793 0.00145875 1.75693e-05)
        Pressure : (0.0228715 0.0014259 3.5001e-06)
        Viscous  : (0.0736078 3.28491e-05 1.40692e-05)
    Sum of moments
        Total    : (1.16642e-06 -3.77436e-06 0.000456718)
        Pressure : (1.14563e-06 -4.14834e-06 0.000424569)
        Viscous  : (2.07984e-08 3.73983e-07 3.21489e-05)
    writing force and moment files.

Time = 36

smoothSolver:  Solving for Ux, Initial residual = 5.32759e-05, Final residual = 1.15031e-06, No Iterations 2
smoothSolver:  Solving for Uy, Initial residual = 0.00327952, Final residual = 0.000272652, No Iterations 1
smoothSolver:  Solving for Uz, Initial residual = 0.0035433, Final residual = 0.000339504, No Iterations 1
GAMG:  Solving for p, Initial residual = 0.0119629, Final residual = 0.000458122, No Iterations 2
time step continuity errors : sum local = 1.53387e-06, global = 4.02572e-07, cumulative = 4.13877e-06
smoothSolver:  Solving for omega, Initial residual = 2.2585e-05, Final residual = 1.34029e-06, No Iterations 1
smoothSolver:  Solving for k, Initial residual = 0.00288436, Final residual = 0.000166682, No Iterations 1
ExecutionTime = 22.04 s  ClockTime = 22 s

forces forcesFish write:
    Sum of forces
        Total    : (0.0960168 0.00151896 -5.56981e-05)
        Pressure : (0.0227015 0.00148524 -6.9692e-05)
        Viscous  : (0.0733154 3.37208e-05 1.39939e-05)
    Sum of moments
        Total    : (1.27167e-06 1.25382e-05 0.00045186)
        Pressure : (1.25492e-06 1.2178e-05 0.000419769)
        Viscous  : (1.67453e-08 3.60202e-07 3.2091e-05)
    writing force and moment files.

Time = 37

smoothSolver:  Solving for Ux, Initial residual = 4.87282e-05, Final residual = 1.06645e-06, No Iterations 2
smoothSolver:  Solving for Uy, Initial residual = 0.00292002, Final residual = 0.000245486, No Iterations 1
smoothSolver:  Solving for Uz, Initial residual = 0.00317474, Final residual = 0.000297592, No Iterations 1
GAMG:  Solving for p, Initial residual = 0.0111743, Final residual = 0.000451902, No Iterations 2
time step continuity errors : sum local = 1.51112e-06, global = 3.76643e-07, cumulative = 4.51541e-06
smoothSolver:  Solving for omega, Initial residual = 1.91523e-05, Final residual = 1.16292e-06, No Iterations 1
smoothSolver:  Solving for k, Initial residual = 0.00256976, Final residual = 0.000148165, No Iterations 1
ExecutionTime = 22.73 s  ClockTime = 23 s

forces forcesFish write:
    Sum of forces
        Total    : (0.0956297 0.00153414 -0.000101367)
        Pressure : (0.0225937 0.00149958 -0.00011537)
        Viscous  : (0.073036 3.45667e-05 1.40028e-05)
    Sum of moments
        Total    : (1.18923e-06 2.17555e-05 0.000441353)
        Pressure : (1.17604e-06 2.14141e-05 0.000409318)
        Viscous  : (1.31902e-08 3.41333e-07 3.20355e-05)
    writing force and moment files.

Time = 38

smoothSolver:  Solving for Ux, Initial residual = 4.60868e-05, Final residual = 9.96195e-07, No Iterations 2
smoothSolver:  Solving for Uy, Initial residual = 0.0026053, Final residual = 0.000221004, No Iterations 1
smoothSolver:  Solving for Uz, Initial residual = 0.00285055, Final residual = 0.00025233, No Iterations 1
GAMG:  Solving for p, Initial residual = 0.0104322, Final residual = 0.000445101, No Iterations 2
time step continuity errors : sum local = 1.48157e-06, global = 2.72003e-07, cumulative = 4.78741e-06
smoothSolver:  Solving for omega, Initial residual = 1.61603e-05, Final residual = 1.00948e-06, No Iterations 1
smoothSolver:  Solving for k, Initial residual = 0.00227793, Final residual = 0.000131198, No Iterations 1
ExecutionTime = 23.37 s  ClockTime = 24 s

forces forcesFish write:
    Sum of forces
        Total    : (0.0952959 0.00150946 -0.000119704)
        Pressure : (0.0225269 0.00147408 -0.000133777)
        Viscous  : (0.0727691 3.53776e-05 1.40729e-05)
    Sum of moments
        Total    : (9.68762e-07 2.44069e-05 0.000426215)
        Pressure : (9.58579e-07 2.40878e-05 0.000394235)
        Viscous  : (1.0184e-08 3.1903e-07 3.19792e-05)
    writing force and moment files.

Time = 39

smoothSolver:  Solving for Ux, Initial residual = 4.38696e-05, Final residual = 9.34133e-07, No Iterations 2
smoothSolver:  Solving for Uy, Initial residual = 0.00235727, Final residual = 0.000201532, No Iterations 1
smoothSolver:  Solving for Uz, Initial residual = 0.00257784, Final residual = 0.00021345, No Iterations 1
GAMG:  Solving for p, Initial residual = 0.00970883, Final residual = 0.000429242, No Iterations 2
time step continuity errors : sum local = 1.42022e-06, global = 1.48325e-07, cumulative = 4.93574e-06
smoothSolver:  Solving for omega, Initial residual = 1.35714e-05, Final residual = 8.77517e-07, No Iterations 1
smoothSolver:  Solving for k, Initial residual = 0.0020075, Final residual = 0.00011569, No Iterations 1
ExecutionTime = 24.03 s  ClockTime = 24 s

forces forcesFish write:
    Sum of forces
        Total    : (0.0949955 0.00145309 -0.000114393)
        Pressure : (0.0224817 0.00141699 -0.000128564)
        Viscous  : (0.0725138 3.60968e-05 1.41714e-05)
    Sum of moments
        Total    : (6.66354e-07 2.17065e-05 0.000407817)
        Pressure : (6.58609e-07 2.14141e-05 0.000375898)
        Viscous  : (7.74483e-09 2.92358e-07 3.19199e-05)
    writing force and moment files.

Time = 40

smoothSolver:  Solving for Ux, Initial residual = 4.1447e-05, Final residual = 8.7776e-07, No Iterations 2
smoothSolver:  Solving for Uy, Initial residual = 0.00218815, Final residual = 0.000187866, No Iterations 1
smoothSolver:  Solving for Uz, Initial residual = 0.0023535, Final residual = 0.00018277, No Iterations 1
GAMG:  Solving for p, Initial residual = 0.00903571, Final residual = 0.000414269, No Iterations 2
time step continuity errors : sum local = 1.36226e-06, global = 3.9423e-08, cumulative = 4.97516e-06
smoothSolver:  Solving for omega, Initial residual = 1.13491e-05, Final residual = 7.64652e-07, No Iterations 1
smoothSolver:  Solving for k, Initial residual = 0.00175853, Final residual = 0.000101622, No Iterations 1
ExecutionTime = 24.7 s  ClockTime = 25 s

forces forcesFish write:
    Sum of forces
        Total    : (0.0947141 0.00137597 -9.18981e-05)
        Pressure : (0.0224445 0.00133926 -0.000106199)
        Viscous  : (0.0722695 3.67057e-05 1.43009e-05)
    Sum of moments
        Total    : (3.39634e-07 1.54213e-05 0.000387912)
        Pressure : (3.33631e-07 1.51551e-05 0.00035606)
        Viscous  : (6.00337e-09 2.66157e-07 3.18516e-05)
    writing force and moment files.

Time = 41

smoothSolver:  Solving for Ux, Initial residual = 3.85722e-05, Final residual = 8.23736e-07, No Iterations 2
smoothSolver:  Solving for Uy, Initial residual = 0.00205103, Final residual = 0.000177562, No Iterations 1
smoothSolver:  Solving for Uz, Initial residual = 0.00217151, Final residual = 0.000162975, No Iterations 1
GAMG:  Solving for p, Initial residual = 0.00841377, Final residual = 0.000394765, No Iterations 2
time step continuity errors : sum local = 1.29123e-06, global = -4.44818e-08, cumulative = 4.93068e-06
smoothSolver:  Solving for omega, Initial residual = 9.45754e-06, Final residual = 6.68537e-07, No Iterations 1
smoothSolver:  Solving for k, Initial residual = 0.00153114, Final residual = 8.89668e-05, No Iterations 1
ExecutionTime = 25.36 s  ClockTime = 26 s

forces forcesFish write:
    Sum of forces
        Total    : (0.094443 0.00128997 -6.03146e-05)
        Pressure : (0.022407 0.00125279 -7.47462e-05)
        Viscous  : (0.072036 3.71815e-05 1.44316e-05)
    Sum of moments
        Total    : (3.79771e-08 7.5495e-06 0.000368305)
        Pressure : (3.32791e-08 7.30867e-06 0.000336532)
        Viscous  : (4.69795e-09 2.40832e-07 3.17736e-05)
    writing force and moment files.

Time = 42

smoothSolver:  Solving for Ux, Initial residual = 3.54061e-05, Final residual = 7.71244e-07, No Iterations 2
smoothSolver:  Solving for Uy, Initial residual = 0.0019197, Final residual = 0.000167396, No Iterations 1
smoothSolver:  Solving for Uz, Initial residual = 0.00203432, Final residual = 0.000155751, No Iterations 1
GAMG:  Solving for p, Initial residual = 0.00782846, Final residual = 0.000358488, No Iterations 2
time step continuity errors : sum local = 1.16795e-06, global = -9.61357e-08, cumulative = 4.83454e-06
smoothSolver:  Solving for omega, Initial residual = 7.86114e-06, Final residual = 5.87027e-07, No Iterations 1
smoothSolver:  Solving for k, Initial residual = 0.0013248, Final residual = 7.76515e-05, No Iterations 1
ExecutionTime = 26.04 s  ClockTime = 26 s

forces forcesFish write:
    Sum of forces
        Total    : (0.0941787 0.00120627 -2.76081e-05)
        Pressure : (0.0223657 0.00116874 -4.21365e-05)
        Viscous  : (0.0718129 3.75308e-05 1.45285e-05)
    Sum of moments
        Total    : (-2.02649e-07 -5.55264e-08 0.000350637)
        Pressure : (-2.06097e-07 -2.74539e-07 0.000318955)
        Viscous  : (3.44728e-09 2.19012e-07 3.16811e-05)
    writing force and moment files.

Time = 43

smoothSolver:  Solving for Ux, Initial residual = 3.23181e-05, Final residual = 7.21492e-07, No Iterations 2
smoothSolver:  Solving for Uy, Initial residual = 0.00178744, Final residual = 0.000157012, No Iterations 1
smoothSolver:  Solving for Uz, Initial residual = 0.00192062, Final residual = 0.000152671, No Iterations 1
GAMG:  Solving for p, Initial residual = 0.0073019, Final residual = 0.000318009, No Iterations 2
time step continuity errors : sum local = 1.03351e-06, global = -1.35132e-07, cumulative = 4.69941e-06
smoothSolver:  Solving for omega, Initial residual = 6.52546e-06, Final residual = 5.18205e-07, No Iterations 1
smoothSolver:  Solving for k, Initial residual = 0.00113876, Final residual = 6.75862e-05, No Iterations 1
ExecutionTime = 26.7 s  ClockTime = 27 s

forces forcesFish write:
    Sum of forces
        Total    : (0.0939213 0.00113423 -4.35124e-07)
        Pressure : (0.0223213 0.00109645 -1.50221e-05)
        Viscous  : (0.0716001 3.77848e-05 1.45869e-05)
    Sum of moments
        Total    : (-3.61213e-07 -5.93489e-06 0.000336237)
        Pressure : (-3.63381e-07 -6.13672e-06 0.00030466)
        Viscous  : (2.16774e-09 2.01824e-07 3.15778e-05)
    writing force and moment files.

Time = 44

smoothSolver:  Solving for Ux, Initial residual = 2.97216e-05, Final residual = 6.77136e-07, No Iterations 2
smoothSolver:  Solving for Uy, Initial residual = 0.00164888, Final residual = 0.00014494, No Iterations 1
smoothSolver:  Solving for Uz, Initial residual = 0.00181258, Final residual = 0.000146486, No Iterations 1
GAMG:  Solving for p, Initial residual = 0.0068043, Final residual = 0.000286083, No Iterations 2
time step continuity errors : sum local = 9.28723e-07, global = -1.57735e-07, cumulative = 4.54168e-06
smoothSolver:  Solving for omega, Initial residual = 5.41728e-06, Final residual = 4.60242e-07, No Iterations 1
smoothSolver:  Solving for k, Initial residual = 0.000972924, Final residual = 5.87197e-05, No Iterations 1
ExecutionTime = 27.43 s  ClockTime = 28 s

forces forcesFish write:
    Sum of forces
        Total    : (0.093672 0.00107959 1.68431e-05)
        Pressure : (0.0222749 0.00104163 2.22834e-06)
        Viscous  : (0.071397 3.79613e-05 1.46148e-05)
    Sum of moments
        Total    : (-4.33744e-07 -9.24254e-06 0.000325786)
        Pressure : (-4.34686e-07 -9.42938e-06 0.000294319)
        Viscous  : (9.42011e-10 1.86847e-07 3.14665e-05)
    writing force and moment files.

Time = 45

smoothSolver:  Solving for Ux, Initial residual = 2.80719e-05, Final residual = 6.41401e-07, No Iterations 2
smoothSolver:  Solving for Uy, Initial residual = 0.00150702, Final residual = 0.00013081, No Iterations 1
smoothSolver:  Solving for Uz, Initial residual = 0.00171177, Final residual = 0.000137824, No Iterations 1
GAMG:  Solving for p, Initial residual = 0.00634054, Final residual = 0.000258895, No Iterations 2
time step continuity errors : sum local = 8.40294e-07, global = -1.81884e-07, cumulative = 4.35979e-06
smoothSolver:  Solving for omega, Initial residual = 4.50579e-06, Final residual = 4.11538e-07, No Iterations 1
smoothSolver:  Solving for k, Initial residual = 0.000826434, Final residual = 5.09591e-05, No Iterations 1
ExecutionTime = 28.11 s  ClockTime = 28 s

forces forcesFish write:
    Sum of forces
        Total    : (0.0934313 0.00104361 2.26671e-05)
        Pressure : (0.0222278 0.00100554 8.04767e-06)
        Viscous  : (0.0712035 3.80668e-05 1.46194e-05)
    Sum of moments
        Total    : (-4.3199e-07 -9.81141e-06 0.000319152)
        Pressure : (-4.31691e-07 -9.9853e-06 0.000287809)
        Viscous  : (-2.98813e-10 1.73887e-07 3.13436e-05)
    writing force and moment files.

Time = 46

smoothSolver:  Solving for Ux, Initial residual = 2.73974e-05, Final residual = 6.13039e-07, No Iterations 2
smoothSolver:  Solving for Uy, Initial residual = 0.00137361, Final residual = 0.000115922, No Iterations 1
smoothSolver:  Solving for Uz, Initial residual = 0.00161994, Final residual = 0.000129735, No Iterations 1
GAMG:  Solving for p, Initial residual = 0.00593561, Final residual = 0.000235288, No Iterations 2
time step continuity errors : sum local = 7.63954e-07, global = -1.86453e-07, cumulative = 4.17334e-06
smoothSolver:  Solving for omega, Initial residual = 3.7624e-06, Final residual = 3.70636e-07, No Iterations 1
smoothSolver:  Solving for k, Initial residual = 0.000698159, Final residual = 4.42021e-05, No Iterations 1
ExecutionTime = 28.75 s  ClockTime = 29 s

forces forcesFish write:
    Sum of forces
        Total    : (0.0932001 0.00102426 1.78598e-05)
        Pressure : (0.022181 0.000986123 3.25777e-06)
        Viscous  : (0.071019 3.81358e-05 1.46021e-05)
    Sum of moments
        Total    : (-3.76513e-07 -7.99606e-06 0.000315678)
        Pressure : (-3.74913e-07 -8.15924e-06 0.000284467)
        Viscous  : (-1.6003e-09 1.63177e-07 3.12112e-05)
    writing force and moment files.

Time = 47

smoothSolver:  Solving for Ux, Initial residual = 2.69225e-05, Final residual = 5.8731e-07, No Iterations 2
smoothSolver:  Solving for Uy, Initial residual = 0.00126243, Final residual = 0.000102866, No Iterations 1
smoothSolver:  Solving for Uz, Initial residual = 0.00152772, Final residual = 0.000121086, No Iterations 1
GAMG:  Solving for p, Initial residual = 0.00555983, Final residual = 0.000213273, No Iterations 2
time step continuity errors : sum local = 6.9279e-07, global = -1.72328e-07, cumulative = 4.00101e-06
smoothSolver:  Solving for omega, Initial residual = 3.16061e-06, Final residual = 6.16199e-08, No Iterations 2
smoothSolver:  Solving for k, Initial residual = 0.000586632, Final residual = 3.83295e-05, No Iterations 1
ExecutionTime = 29.47 s  ClockTime = 30 s

forces forcesFish write:
    Sum of forces
        Total    : (0.092979 0.00101804 4.66227e-06)
        Pressure : (0.0221357 0.000979863 -9.9076e-06)
        Viscous  : (0.0708433 3.81794e-05 1.45699e-05)
    Sum of moments
        Total    : (-2.89091e-07 -4.41613e-06 0.000314535)
        Pressure : (-2.86142e-07 -4.57072e-06 0.00028346)
        Viscous  : (-2.94941e-09 1.54581e-07 3.10742e-05)
    writing force and moment files.

Time = 48

smoothSolver:  Solving for Ux, Initial residual = 2.631e-05, Final residual = 5.62166e-07, No Iterations 2
smoothSolver:  Solving for Uy, Initial residual = 0.00117701, Final residual = 9.28081e-05, No Iterations 1
smoothSolver:  Solving for Uz, Initial residual = 0.00143119, Final residual = 0.00011173, No Iterations 1
GAMG:  Solving for p, Initial residual = 0.00522598, Final residual = 0.000204336, No Iterations 2
time step continuity errors : sum local = 6.63805e-07, global = -1.47361e-07, cumulative = 3.85365e-06
smoothSolver:  Solving for omega, Initial residual = 2.61661e-06, Final residual = 5.63322e-08, No Iterations 2
smoothSolver:  Solving for k, Initial residual = 0.000490903, Final residual = 3.32738e-05, No Iterations 1
ExecutionTime = 30.14 s  ClockTime = 30 s

forces forcesFish write:
    Sum of forces
        Total    : (0.0927693 0.00102134 -1.39928e-05)
        Pressure : (0.0220932 0.000983128 -2.8525e-05)
        Viscous  : (0.0706761 3.82098e-05 1.45322e-05)
    Sum of moments
        Total    : (-1.89529e-07 2.0755e-07 0.00031496)
        Pressure : (-1.85175e-07 6.14184e-08 0.000284026)
        Viscous  : (-4.35359e-09 1.46132e-07 3.09339e-05)
    writing force and moment files.

Time = 49

smoothSolver:  Solving for Ux, Initial residual = 2.5316e-05, Final residual = 5.36496e-07, No Iterations 2
smoothSolver:  Solving for Uy, Initial residual = 0.0010998, Final residual = 8.49502e-05, No Iterations 1
smoothSolver:  Solving for Uz, Initial residual = 0.00133348, Final residual = 0.000102782, No Iterations 1
GAMG:  Solving for p, Initial residual = 0.00491574, Final residual = 0.000191873, No Iterations 2
time step continuity errors : sum local = 6.22904e-07, global = -1.24192e-07, cumulative = 3.72946e-06
smoothSolver:  Solving for omega, Initial residual = 2.18857e-06, Final residual = 5.10783e-08, No Iterations 2
smoothSolver:  Solving for k, Initial residual = 0.000409459, Final residual = 2.89356e-05, No Iterations 1
ExecutionTime = 30.83 s  ClockTime = 31 s

forces forcesFish write:
    Sum of forces
        Total    : (0.0925707 0.00102997 -3.44061e-05)
        Pressure : (0.0220539 0.000991741 -4.89059e-05)
        Viscous  : (0.0705168 3.82286e-05 1.44998e-05)
    Sum of moments
        Total    : (-9.79844e-08 5.00317e-06 0.000316122)
        Pressure : (-9.21912e-08 4.86703e-06 0.000285334)
        Viscous  : (-5.79313e-09 1.36141e-07 3.07877e-05)
    writing force and moment files.

Time = 50

smoothSolver:  Solving for Ux, Initial residual = 2.3971e-05, Final residual = 5.10088e-07, No Iterations 2
smoothSolver:  Solving for Uy, Initial residual = 0.00102532, Final residual = 7.89386e-05, No Iterations 1
smoothSolver:  Solving for Uz, Initial residual = 0.00123347, Final residual = 9.40006e-05, No Iterations 1
GAMG:  Solving for p, Initial residual = 0.00463175, Final residual = 0.000177493, No Iterations 2
time step continuity errors : sum local = 5.75454e-07, global = -1.02617e-07, cumulative = 3.62684e-06
smoothSolver:  Solving for omega, Initial residual = 1.85144e-06, Final residual = 4.64237e-08, No Iterations 2
smoothSolver:  Solving for k, Initial residual = 0.000340752, Final residual = 2.52227e-05, No Iterations 1
ExecutionTime = 31.48 s  ClockTime = 32 s

forces forcesFish write:
    Sum of forces
        Total    : (0.092383 0.00103916 -5.28243e-05)
        Pressure : (0.0220177 0.00100093 -6.7307e-05)
        Viscous  : (0.0703653 3.82356e-05 1.44827e-05)
    Sum of moments
        Total    : (-3.2584e-08 9.11849e-06 0.000317119)
        Pressure : (-2.54495e-08 8.99559e-06 0.000286481)
        Viscous  : (-7.13447e-09 1.22905e-07 3.06378e-05)
    writing force and moment files.

Time = 51

smoothSolver:  Solving for Ux, Initial residual = 2.26436e-05, Final residual = 4.8439e-07, No Iterations 2
smoothSolver:  Solving for Uy, Initial residual = 0.000950623, Final residual = 7.35787e-05, No Iterations 1
smoothSolver:  Solving for Uz, Initial residual = 0.00113952, Final residual = 8.57519e-05, No Iterations 1
GAMG:  Solving for p, Initial residual = 0.00436424, Final residual = 0.00016794, No Iterations 2
time step continuity errors : sum local = 5.43736e-07, global = -7.10841e-08, cumulative = 3.55576e-06
smoothSolver:  Solving for omega, Initial residual = 1.58542e-06, Final residual = 4.23439e-08, No Iterations 2
smoothSolver:  Solving for k, Initial residual = 0.000283215, Final residual = 2.20469e-05, No Iterations 1
ExecutionTime = 32.21 s  ClockTime = 32 s

forces forcesFish write:
    Sum of forces
        Total    : (0.0922059 0.00104548 -6.69326e-05)
        Pressure : (0.0219848 0.00100727 -8.14111e-05)
        Viscous  : (0.0702211 3.82168e-05 1.44786e-05)
    Sum of moments
        Total    : (-9.06121e-10 1.20897e-05 0.000317355)
        Pressure : (7.41557e-09 1.19824e-05 0.000286878)
        Viscous  : (-8.32169e-09 1.07286e-07 3.04776e-05)
    writing force and moment files.

Time = 52

smoothSolver:  Solving for Ux, Initial residual = 2.15146e-05, Final residual = 4.60631e-07, No Iterations 2
smoothSolver:  Solving for Uy, Initial residual = 0.000871877, Final residual = 6.84415e-05, No Iterations 1
smoothSolver:  Solving for Uz, Initial residual = 0.00105336, Final residual = 7.85902e-05, No Iterations 1
GAMG:  Solving for p, Initial residual = 0.00411056, Final residual = 0.000163646, No Iterations 2
time step continuity errors : sum local = 5.2931e-07, global = -3.16809e-08, cumulative = 3.52408e-06
smoothSolver:  Solving for omega, Initial residual = 1.37478e-06, Final residual = 3.87883e-08, No Iterations 2
smoothSolver:  Solving for k, Initial residual = 0.000235384, Final residual = 1.93319e-05, No Iterations 1
ExecutionTime = 32.89 s  ClockTime = 33 s

forces forcesFish write:
    Sum of forces
        Total    : (0.092039 0.00104775 -7.61317e-05)
        Pressure : (0.0219551 0.00100959 -9.06224e-05)
        Viscous  : (0.0700839 3.81635e-05 1.44907e-05)
    Sum of moments
        Total    : (6.65334e-10 1.38813e-05 0.000316698)
        Pressure : (1.00226e-08 1.37921e-05 0.000286392)
        Viscous  : (-9.35731e-09 8.92012e-08 3.03056e-05)
    writing force and moment files.

Time = 53

smoothSolver:  Solving for Ux, Initial residual = 2.06485e-05, Final residual = 4.38665e-07, No Iterations 2
smoothSolver:  Solving for Uy, Initial residual = 0.000798035, Final residual = 6.36617e-05, No Iterations 1
smoothSolver:  Solving for Uz, Initial residual = 0.000977927, Final residual = 7.26958e-05, No Iterations 1
GAMG:  Solving for p, Initial residual = 0.00387265, Final residual = 0.000158435, No Iterations 2
time step continuity errors : sum local = 5.12143e-07, global = 7.92024e-09, cumulative = 3.532e-06
smoothSolver:  Solving for omega, Initial residual = 1.20675e-06, Final residual = 3.56752e-08, No Iterations 2
smoothSolver:  Solving for k, Initial residual = 0.00019591, Final residual = 1.7012e-05, No Iterations 1
ExecutionTime = 33.52 s  ClockTime = 34 s

forces forcesFish write:
    Sum of forces
        Total    : (0.0918816 0.00104621 -8.0923e-05)
        Pressure : (0.0219282 0.00100814 -9.54339e-05)
        Viscous  : (0.0699535 3.80744e-05 1.45108e-05)
    Sum of moments
        Total    : (-1.92991e-08 1.47026e-05 0.000315281)
        Pressure : (-9.00812e-09 1.46315e-05 0.000285155)
        Viscous  : (-1.0291e-08 7.11343e-08 3.01261e-05)
    writing force and moment files.

Time = 54

smoothSolver:  Solving for Ux, Initial residual = 2.00096e-05, Final residual = 4.18385e-07, No Iterations 2
smoothSolver:  Solving for Uy, Initial residual = 0.000735305, Final residual = 5.96304e-05, No Iterations 1
smoothSolver:  Solving for Uz, Initial residual = 0.000914743, Final residual = 6.82516e-05, No Iterations 1
GAMG:  Solving for p, Initial residual = 0.00364078, Final residual = 0.000147767, No Iterations 2
time step continuity errors : sum local = 4.77515e-07, global = 5.28549e-08, cumulative = 3.58485e-06
smoothSolver:  Solving for omega, Initial residual = 1.07169e-06, Final residual = 3.28857e-08, No Iterations 2
smoothSolver:  Solving for k, Initial residual = 0.000163509, Final residual = 1.50263e-05, No Iterations 1
ExecutionTime = 34.14 s  ClockTime = 34 s

forces forcesFish write:
    Sum of forces
        Total    : (0.0917327 0.00104167 -8.22986e-05)
        Pressure : (0.0219034 0.00100374 -9.6834e-05)
        Viscous  : (0.0698293 3.79383e-05 1.45353e-05)
    Sum of moments
        Total    : (-5.1782e-08 1.48459e-05 0.000313324)
        Pressure : (-4.06775e-08 1.47926e-05 0.000283388)
        Viscous  : (-1.11045e-08 5.33394e-08 2.99365e-05)
    writing force and moment files.

Time = 55

smoothSolver:  Solving for Ux, Initial residual = 1.9465e-05, Final residual = 3.99758e-07, No Iterations 2
smoothSolver:  Solving for Uy, Initial residual = 0.000692042, Final residual = 5.69096e-05, No Iterations 1
smoothSolver:  Solving for Uz, Initial residual = 0.000860426, Final residual = 6.49785e-05, No Iterations 1
GAMG:  Solving for p, Initial residual = 0.00342521, Final residual = 0.000132367, No Iterations 2
time step continuity errors : sum local = 4.27712e-07, global = 8.69193e-08, cumulative = 3.67177e-06
smoothSolver:  Solving for omega, Initial residual = 9.62077e-07, Final residual = 3.03775e-08, No Iterations 2
smoothSolver:  Solving for k, Initial residual = 0.000137032, Final residual = 1.33223e-05, No Iterations 1
ExecutionTime = 34.84 s  ClockTime = 35 s

forces forcesFish write:
    Sum of forces
        Total    : (0.0915915 0.00103516 -8.14926e-05)
        Pressure : (0.0218803 0.000997405 -9.60542e-05)
        Viscous  : (0.0697112 3.77563e-05 1.45617e-05)
    Sum of moments
        Total    : (-8.87164e-08 1.46286e-05 0.000311074)
        Pressure : (-7.68927e-08 1.45921e-05 0.000281336)
        Viscous  : (-1.18237e-08 3.64614e-08 2.97385e-05)
    writing force and moment files.

Time = 56

smoothSolver:  Solving for Ux, Initial residual = 1.87698e-05, Final residual = 3.81912e-07, No Iterations 2
smoothSolver:  Solving for Uy, Initial residual = 0.000658787, Final residual = 5.47939e-05, No Iterations 1
smoothSolver:  Solving for Uz, Initial residual = 0.000812151, Final residual = 6.24802e-05, No Iterations 1
GAMG:  Solving for p, Initial residual = 0.00322515, Final residual = 0.000111697, No Iterations 2
time step continuity errors : sum local = 3.60996e-07, global = 1.00389e-07, cumulative = 3.77216e-06
smoothSolver:  Solving for omega, Initial residual = 8.72166e-07, Final residual = 2.80898e-08, No Iterations 2
smoothSolver:  Solving for k, Initial residual = 0.000115467, Final residual = 2.25106e-06, No Iterations 2
ExecutionTime = 35.5 s  ClockTime = 36 s

forces forcesFish write:
    Sum of forces
        Total    : (0.0914452 0.00102766 -7.97919e-05)
        Pressure : (0.0218583 0.000990155 -9.43772e-05)
        Viscous  : (0.069587 3.75084e-05 1.45853e-05)
    Sum of moments
        Total    : (-1.23802e-07 1.43561e-05 0.000308741)
        Pressure : (-1.11216e-07 1.43347e-05 0.000279222)
        Viscous  : (-1.25856e-08 2.13222e-08 2.95197e-05)
    writing force and moment files.

Time = 57

smoothSolver:  Solving for Ux, Initial residual = 1.76687e-05, Final residual = 3.65739e-07, No Iterations 2
smoothSolver:  Solving for Uy, Initial residual = 0.000625778, Final residual = 5.26976e-05, No Iterations 1
smoothSolver:  Solving for Uz, Initial residual = 0.000769604, Final residual = 6.04235e-05, No Iterations 1
GAMG:  Solving for p, Initial residual = 0.00304186, Final residual = 0.000109103, No Iterations 2
time step continuity errors : sum local = 3.52859e-07, global = 7.87216e-08, cumulative = 3.85088e-06
smoothSolver:  Solving for omega, Initial residual = 8.17653e-07, Final residual = 2.65949e-08, No Iterations 2
smoothSolver:  Solving for k, Initial residual = 9.70861e-05, Final residual = 2.02281e-06, No Iterations 2
ExecutionTime = 36.15 s  ClockTime = 36 s

forces forcesFish write:
    Sum of forces
        Total    : (0.0913056 0.00101993 -7.84527e-05)
        Pressure : (0.0218361 0.00098271 -9.30579e-05)
        Viscous  : (0.0694695 3.72234e-05 1.46052e-05)
    Sum of moments
        Total    : (-1.52626e-07 1.4305e-05 0.000306497)
        Pressure : (-1.39324e-07 1.42981e-05 0.000277202)
        Viscous  : (-1.33016e-08 6.85462e-09 2.9295e-05)
    writing force and moment files.

Time = 58

smoothSolver:  Solving for Ux, Initial residual = 1.56414e-05, Final residual = 3.47181e-07, No Iterations 2
smoothSolver:  Solving for Uy, Initial residual = 0.000594744, Final residual = 5.06577e-05, No Iterations 1
smoothSolver:  Solving for Uz, Initial residual = 0.000731875, Final residual = 5.84077e-05, No Iterations 1
GAMG:  Solving for p, Initial residual = 0.00287013, Final residual = 0.000107885, No Iterations 2
time step continuity errors : sum local = 3.49418e-07, global = 5.34401e-08, cumulative = 3.90432e-06
smoothSolver:  Solving for omega, Initial residual = 7.64443e-07, Final residual = 2.50394e-08, No Iterations 2
smoothSolver:  Solving for k, Initial residual = 8.21667e-05, Final residual = 1.80047e-06, No Iterations 2
ExecutionTime = 36.8 s  ClockTime = 37 s

forces forcesFish write:
    Sum of forces
        Total    : (0.0911724 0.00101302 -7.84339e-05)
        Pressure : (0.021814 0.000976114 -9.30497e-05)
        Viscous  : (0.0693584 3.69099e-05 1.46158e-05)
    Sum of moments
        Total    : (-1.71842e-07 1.46579e-05 0.000304601)
        Pressure : (-1.57865e-07 1.46636e-05 0.000275535)
        Viscous  : (-1.39766e-08 -5.70427e-09 2.90665e-05)
    writing force and moment files.

Time = 59

smoothSolver:  Solving for Ux, Initial residual = 1.31144e-05, Final residual = 3.2695e-07, No Iterations 2
smoothSolver:  Solving for Uy, Initial residual = 0.000561326, Final residual = 4.83325e-05, No Iterations 1
smoothSolver:  Solving for Uz, Initial residual = 0.000694577, Final residual = 5.60867e-05, No Iterations 1
GAMG:  Solving for p, Initial residual = 0.002703, Final residual = 9.73053e-05, No Iterations 2
time step continuity errors : sum local = 3.15744e-07, global = 5.34595e-08, cumulative = 3.95778e-06
smoothSolver:  Solving for omega, Initial residual = 7.14764e-07, Final residual = 2.34922e-08, No Iterations 2
smoothSolver:  Solving for k, Initial residual = 7.00432e-05, Final residual = 1.59774e-06, No Iterations 2
ExecutionTime = 37.44 s  ClockTime = 38 s

forces forcesFish write:
    Sum of forces
        Total    : (0.0910461 0.0010079 -8.00139e-05)
        Pressure : (0.0217924 0.000971332 -9.46337e-05)
        Viscous  : (0.0692538 3.65707e-05 1.46198e-05)
    Sum of moments
        Total    : (-1.80187e-07 1.54276e-05 0.000303272)
        Pressure : (-1.65513e-07 1.54443e-05 0.000274439)
        Viscous  : (-1.46738e-08 -1.67254e-08 2.88327e-05)
    writing force and moment files.

Time = 60

smoothSolver:  Solving for Ux, Initial residual = 1.13768e-05, Final residual = 3.09186e-07, No Iterations 2
smoothSolver:  Solving for Uy, Initial residual = 0.000520734, Final residual = 4.54323e-05, No Iterations 1
smoothSolver:  Solving for Uz, Initial residual = 0.000652533, Final residual = 5.31805e-05, No Iterations 1
GAMG:  Solving for p, Initial residual = 0.00254249, Final residual = 8.98643e-05, No Iterations 2
time step continuity errors : sum local = 2.9206e-07, global = 5.18842e-08, cumulative = 4.00967e-06
smoothSolver:  Solving for omega, Initial residual = 6.68655e-07, Final residual = 2.19906e-08, No Iterations 2
smoothSolver:  Solving for k, Initial residual = 6.01559e-05, Final residual = 1.41595e-06, No Iterations 2
ExecutionTime = 38.13 s  ClockTime = 38 s

forces forcesFish write:
    Sum of forces
        Total    : (0.0909268 0.00100491 -8.30096e-05)
        Pressure : (0.0217715 0.000968696 -9.76306e-05)
        Viscous  : (0.0691553 3.62094e-05 1.4621e-05)
    Sum of moments
        Total    : (-1.78804e-07 1.65261e-05 0.000302548)
        Pressure : (-1.63543e-07 1.65534e-05 0.000273955)
        Viscous  : (-1.52613e-08 -2.72773e-08 2.85928e-05)
    writing force and moment files.

Time = 61

smoothSolver:  Solving for Ux, Initial residual = 1.04095e-05, Final residual = 2.94367e-07, No Iterations 2
smoothSolver:  Solving for Uy, Initial residual = 0.000476939, Final residual = 4.22311e-05, No Iterations 1
smoothSolver:  Solving for Uz, Initial residual = 0.000610121, Final residual = 4.99526e-05, No Iterations 1
GAMG:  Solving for p, Initial residual = 0.00239324, Final residual = 8.94607e-05, No Iterations 2
time step continuity errors : sum local = 2.91037e-07, global = 3.28364e-08, cumulative = 4.0425e-06
smoothSolver:  Solving for omega, Initial residual = 6.26018e-07, Final residual = 2.05369e-08, No Iterations 2
smoothSolver:  Solving for k, Initial residual = 5.20389e-05, Final residual = 1.25355e-06, No Iterations 2
ExecutionTime = 38.88 s  ClockTime = 39 s

forces forcesFish write:
    Sum of forces
        Total    : (0.090814 0.00100385 -8.71724e-05)
        Pressure : (0.0217513 0.000968019 -0.000101795)
        Viscous  : (0.0690628 3.58337e-05 1.4623e-05)
    Sum of moments
        Total    : (-1.7028e-07 1.78661e-05 0.000302351)
        Pressure : (-1.5454e-07 1.79046e-05 0.000274003)
        Viscous  : (-1.57392e-08 -3.85544e-08 2.83481e-05)
    writing force and moment files.

Time = 62

smoothSolver:  Solving for Ux, Initial residual = 9.87335e-06, Final residual = 2.80956e-07, No Iterations 2
smoothSolver:  Solving for Uy, Initial residual = 0.000437494, Final residual = 3.93182e-05, No Iterations 1
smoothSolver:  Solving for Uz, Initial residual = 0.000570239, Final residual = 4.67744e-05, No Iterations 1
GAMG:  Solving for p, Initial residual = 0.00225281, Final residual = 8.56724e-05, No Iterations 2
time step continuity errors : sum local = 2.7888e-07, global = 4.10301e-09, cumulative = 4.04661e-06
smoothSolver:  Solving for omega, Initial residual = 5.86477e-07, Final residual = 1.91384e-08, No Iterations 2
smoothSolver:  Solving for k, Initial residual = 4.53186e-05, Final residual = 1.10858e-06, No Iterations 2
ExecutionTime = 39.61 s  ClockTime = 40 s

forces forcesFish write:
    Sum of forces
        Total    : (0.0907076 0.00100448 -9.22795e-05)
        Pressure : (0.0217317 0.000969026 -0.000106908)
        Viscous  : (0.0689759 3.54581e-05 1.46285e-05)
    Sum of moments
        Total    : (-1.57018e-07 1.93792e-05 0.000302602)
        Pressure : (-1.40888e-07 1.94306e-05 0.000274498)
        Viscous  : (-1.61299e-08 -5.14011e-08 2.81038e-05)
    writing force and moment files.

Time = 63

smoothSolver:  Solving for Ux, Initial residual = 9.56876e-06, Final residual = 2.68374e-07, No Iterations 2
smoothSolver:  Solving for Uy, Initial residual = 0.000409127, Final residual = 3.71481e-05, No Iterations 1
smoothSolver:  Solving for Uz, Initial residual = 0.000535503, Final residual = 4.39219e-05, No Iterations 1
GAMG:  Solving for p, Initial residual = 0.00212059, Final residual = 7.79906e-05, No Iterations 2
time step continuity errors : sum local = 2.53977e-07, global = -2.66323e-08, cumulative = 4.01997e-06
smoothSolver:  Solving for omega, Initial residual = 5.49565e-07, Final residual = 1.7798e-08, No Iterations 2
smoothSolver:  Solving for k, Initial residual = 3.97043e-05, Final residual = 9.79294e-07, No Iterations 2
ExecutionTime = 40.17 s  ClockTime = 40 s

forces forcesFish write:
    Sum of forces
        Total    : (0.0906075 0.00100655 -9.801e-05)
        Pressure : (0.021713 0.000971459 -0.000112642)
        Viscous  : (0.0688945 3.50912e-05 1.46322e-05)
    Sum of moments
        Total    : (-1.41187e-07 2.09832e-05 0.000303235)
        Pressure : (-1.24656e-07 2.10466e-05 0.000275371)
        Viscous  : (-1.65306e-08 -6.33612e-08 2.78638e-05)
    writing force and moment files.

Time = 64

smoothSolver:  Solving for Ux, Initial residual = 9.31956e-06, Final residual = 2.56182e-07, No Iterations 2
smoothSolver:  Solving for Uy, Initial residual = 0.000389454, Final residual = 3.55748e-05, No Iterations 1
[...]
        Viscous  : (-1.7676e-08 -3.7765e-07 2.39799e-05)
    writing force and moment files.

Time = 120

smoothSolver:  Solving for Ux, Initial residual = 9.21603e-07, Final residual = 6.30789e-08, No Iterations 1
smoothSolver:  Solving for Uy, Initial residual = 2.08689e-05, Final residual = 1.82235e-06, No Iterations 1
smoothSolver:  Solving for Uz, Initial residual = 2.65082e-05, Final residual = 2.43936e-06, No Iterations 1
GAMG:  Solving for p, Initial residual = 9.9411e-05, Final residual = 4.32492e-06, No Iterations 2
time step continuity errors : sum local = 1.41987e-08, global = -2.36701e-09, cumulative = 3.84676e-06
smoothSolver:  Solving for omega, Initial residual = 8.41772e-09, Final residual = 8.41772e-09, No Iterations 0
smoothSolver:  Solving for k, Initial residual = 4.27643e-08, Final residual = 4.2438e-09, No Iterations 1
ExecutionTime = 72.14 s  ClockTime = 72 s

forces forcesFish write:
    Sum of forces
        Total    : (0.0893689 0.00110544 -0.000158828)
        Pressure : (0.0214814 0.00107538 -0.000173925)
        Viscous  : (0.0678875 3.00651e-05 1.50971e-05)
    Sum of moments
        Total    : (-5.84344e-08 3.821e-05 0.000336464)
        Pressure : (-4.07913e-08 3.85881e-05 0.000312488)
        Viscous  : (-1.76431e-08 -3.78046e-07 2.39768e-05)
    writing force and moment files.

Time = 121

smoothSolver:  Solving for Ux, Initial residual = 8.91484e-07, Final residual = 6.03566e-08, No Iterations 1
smoothSolver:  Solving for Uy, Initial residual = 1.9567e-05, Final residual = 1.69684e-06, No Iterations 1
smoothSolver:  Solving for Uz, Initial residual = 2.48789e-05, Final residual = 2.27597e-06, No Iterations 1
GAMG:  Solving for p, Initial residual = 9.34509e-05, Final residual = 3.89361e-06, No Iterations 2
time step continuity errors : sum local = 1.27831e-08, global = -3.9825e-10, cumulative = 3.84636e-06
smoothSolver:  Solving for omega, Initial residual = 9.44554e-09, Final residual = 9.44554e-09, No Iterations 0
smoothSolver:  Solving for k, Initial residual = 4.07017e-08, Final residual = 3.90896e-09, No Iterations 1
ExecutionTime = 72.61 s  ClockTime = 73 s

forces forcesFish write:
    Sum of forces
        Total    : (0.0893678 0.00110575 -0.000158858)
        Pressure : (0.0214811 0.00107569 -0.000173955)
        Viscous  : (0.0678868 3.00644e-05 1.50977e-05)
    Sum of moments
        Total    : (-5.81426e-08 3.82228e-05 0.000336579)
        Pressure : (-4.05296e-08 3.86012e-05 0.000312605)
        Viscous  : (-1.76129e-08 -3.78411e-07 2.3974e-05)
    writing force and moment files.

Time = 122

smoothSolver:  Solving for Ux, Initial residual = 8.54112e-07, Final residual = 5.73587e-08, No Iterations 1
smoothSolver:  Solving for Uy, Initial residual = 1.8359e-05, Final residual = 1.58248e-06, No Iterations 1
smoothSolver:  Solving for Uz, Initial residual = 2.33124e-05, Final residual = 2.12427e-06, No Iterations 1
GAMG:  Solving for p, Initial residual = 8.79133e-05, Final residual = 3.56796e-06, No Iterations 2
time step continuity errors : sum local = 1.17145e-08, global = 1.5608e-09, cumulative = 3.84792e-06
smoothSolver:  Solving for omega, Initial residual = 1.04148e-08, Final residual = 1.61215e-09, No Iterations 1
smoothSolver:  Solving for k, Initial residual = 3.90723e-08, Final residual = 3.62139e-09, No Iterations 1
ExecutionTime = 73.07 s  ClockTime = 73 s

forces forcesFish write:
    Sum of forces
        Total    : (0.0893669 0.00110607 -0.00015889)
        Pressure : (0.0214808 0.00107601 -0.000173988)
        Viscous  : (0.0678861 3.0064e-05 1.50982e-05)
    Sum of moments
        Total    : (-5.78375e-08 3.8236e-05 0.000336696)
        Pressure : (-4.0252e-08 3.86148e-05 0.000312724)
        Viscous  : (-1.75855e-08 -3.78744e-07 2.39714e-05)
    writing force and moment files.

Time = 123

smoothSolver:  Solving for Ux, Initial residual = 8.12203e-07, Final residual = 5.42188e-08, No Iterations 1
smoothSolver:  Solving for Uy, Initial residual = 1.72327e-05, Final residual = 1.47832e-06, No Iterations 1
smoothSolver:  Solving for Uz, Initial residual = 2.18263e-05, Final residual = 1.98497e-06, No Iterations 1
GAMG:  Solving for p, Initial residual = 8.27453e-05, Final residual = 3.34555e-06, No Iterations 2
time step continuity errors : sum local = 1.09847e-08, global = 3.23164e-09, cumulative = 3.85115e-06
smoothSolver:  Solving for omega, Initial residual = 7.97241e-09, Final residual = 7.97241e-09, No Iterations 0
smoothSolver:  Solving for k, Initial residual = 3.71928e-08, Final residual = 3.37637e-09, No Iterations 1
ExecutionTime = 73.54 s  ClockTime = 74 s

forces forcesFish write:
    Sum of forces
        Total    : (0.089366 0.00110639 -0.000158923)
        Pressure : (0.0214805 0.00107633 -0.000174022)
        Viscous  : (0.0678855 3.0064e-05 1.50986e-05)
    Sum of moments
        Total    : (-5.75246e-08 3.82496e-05 0.000336814)
        Pressure : (-3.99638e-08 3.86287e-05 0.000312844)
        Viscous  : (-1.75608e-08 -3.79048e-07 2.39692e-05)
    writing force and moment files.

Time = 124

smoothSolver:  Solving for Ux, Initial residual = 7.65379e-07, Final residual = 5.0912e-08, No Iterations 1
smoothSolver:  Solving for Uy, Initial residual = 1.61857e-05, Final residual = 1.38401e-06, No Iterations 1
smoothSolver:  Solving for Uz, Initial residual = 2.04419e-05, Final residual = 1.85927e-06, No Iterations 1
GAMG:  Solving for p, Initial residual = 7.79148e-05, Final residual = 3.18147e-06, No Iterations 2
time step continuity errors : sum local = 1.04464e-08, global = 4.36876e-09, cumulative = 3.85552e-06
smoothSolver:  Solving for omega, Initial residual = 8.80435e-09, Final residual = 8.80435e-09, No Iterations 0
smoothSolver:  Solving for k, Initial residual = 3.55366e-08, Final residual = 3.12272e-09, No Iterations 1
ExecutionTime = 74 s  ClockTime = 74 s

forces forcesFish write:
    Sum of forces
        Total    : (0.0893652 0.00110672 -0.000158959)
        Pressure : (0.0214802 0.00107665 -0.000174058)
        Viscous  : (0.0678849 3.00644e-05 1.5099e-05)
    Sum of moments
        Total    : (-5.72101e-08 3.82635e-05 0.000336932)
        Pressure : (-3.96715e-08 3.86429e-05 0.000312965)
        Viscous  : (-1.75387e-08 -3.79321e-07 2.39672e-05)
    writing force and moment files.

Time = 125

smoothSolver:  Solving for Ux, Initial residual = 7.11541e-07, Final residual = 4.73418e-08, No Iterations 1
smoothSolver:  Solving for Uy, Initial residual = 1.52048e-05, Final residual = 1.29781e-06, No Iterations 1
smoothSolver:  Solving for Uz, Initial residual = 1.9155e-05, Final residual = 1.74468e-06, No Iterations 1
GAMG:  Solving for p, Initial residual = 7.33724e-05, Final residual = 3.27505e-06, No Iterations 2
time step continuity errors : sum local = 1.07542e-08, global = 4.83121e-09, cumulative = 3.86035e-06
smoothSolver:  Solving for omega, Initial residual = 9.5882e-09, Final residual = 9.5882e-09, No Iterations 0
smoothSolver:  Solving for k, Initial residual = 3.3961e-08, Final residual = 2.89504e-09, No Iterations 1
ExecutionTime = 74.46 s  ClockTime = 75 s

forces forcesFish write:
    Sum of forces
        Total    : (0.0893644 0.00110704 -0.000158996)
        Pressure : (0.02148 0.00107697 -0.000174095)
        Viscous  : (0.0678844 3.00651e-05 1.50994e-05)
    Sum of moments
        Total    : (-5.69011e-08 3.82777e-05 0.00033705)
        Pressure : (-3.93822e-08 3.86573e-05 0.000313085)
        Viscous  : (-1.75189e-08 -3.79563e-07 2.39654e-05)
    writing force and moment files.

Time = 126

smoothSolver:  Solving for Ux, Initial residual = 6.48258e-07, Final residual = 4.33799e-08, No Iterations 1
smoothSolver:  Solving for Uy, Initial residual = 1.42819e-05, Final residual = 1.21843e-06, No Iterations 1
smoothSolver:  Solving for Uz, Initial residual = 1.79494e-05, Final residual = 1.63943e-06, No Iterations 1
GAMG:  Solving for p, Initial residual = 6.91559e-05, Final residual = 3.38047e-06, No Iterations 2
time step continuity errors : sum local = 1.11009e-08, global = 4.6579e-09, cumulative = 3.86501e-06
smoothSolver:  Solving for omega, Initial residual = 1.03232e-08, Final residual = 1.5883e-09, No Iterations 1
smoothSolver:  Solving for k, Initial residual = 3.27801e-08, Final residual = 2.70575e-09, No Iterations 1
ExecutionTime = 74.93 s  ClockTime = 75 s

forces forcesFish write:
    Sum of forces
        Total    : (0.0893636 0.00110736 -0.000159033)
        Pressure : (0.0214797 0.00107729 -0.000174132)
        Viscous  : (0.0678839 3.00661e-05 1.50996e-05)
    Sum of moments
        Total    : (-5.66077e-08 3.82917e-05 0.000337167)
        Pressure : (-3.91063e-08 3.86714e-05 0.000313203)
        Viscous  : (-1.75014e-08 -3.79774e-07 2.39639e-05)
    writing force and moment files.

Time = 127

smoothSolver:  Solving for Ux, Initial residual = 5.74938e-07, Final residual = 3.89851e-08, No Iterations 1
smoothSolver:  Solving for Uy, Initial residual = 1.34024e-05, Final residual = 1.14335e-06, No Iterations 1
smoothSolver:  Solving for Uz, Initial residual = 1.67993e-05, Final residual = 1.53962e-06, No Iterations 1
GAMG:  Solving for p, Initial residual = 6.50804e-05, Final residual = 3.3366e-06, No Iterations 2
time step continuity errors : sum local = 1.09576e-08, global = 4.14173e-09, cumulative = 3.86915e-06
smoothSolver:  Solving for omega, Initial residual = 7.67048e-09, Final residual = 7.67048e-09, No Iterations 0
smoothSolver:  Solving for k, Initial residual = 3.10619e-08, Final residual = 2.53038e-09, No Iterations 1
ExecutionTime = 75.42 s  ClockTime = 76 s

forces forcesFish write:
    Sum of forces
        Total    : (0.0893629 0.00110767 -0.000159067)
        Pressure : (0.0214795 0.0010776 -0.000174167)
        Viscous  : (0.0678835 3.00674e-05 1.50999e-05)
    Sum of moments
        Total    : (-5.63441e-08 3.83047e-05 0.000337281)
        Pressure : (-3.88579e-08 3.86847e-05 0.000313318)
        Viscous  : (-1.74862e-08 -3.79957e-07 2.39627e-05)
    writing force and moment files.

Time = 128

smoothSolver:  Solving for Ux, Initial residual = 4.95595e-07, Final residual = 3.43257e-08, No Iterations 1
smoothSolver:  Solving for Uy, Initial residual = 1.2544e-05, Final residual = 1.07047e-06, No Iterations 1
smoothSolver:  Solving for Uz, Initial residual = 1.56897e-05, Final residual = 1.44293e-06, No Iterations 1
GAMG:  Solving for p, Initial residual = 6.1172e-05, Final residual = 3.15487e-06, No Iterations 2
time step continuity errors : sum local = 1.03614e-08, global = 3.62044e-09, cumulative = 3.87277e-06
smoothSolver:  Solving for omega, Initial residual = 8.29323e-09, Final residual = 8.29323e-09, No Iterations 0
smoothSolver:  Solving for k, Initial residual = 2.93571e-08, Final residual = 2.34393e-09, No Iterations 1
ExecutionTime = 75.88 s  ClockTime = 76 s

forces forcesFish write:
    Sum of forces
        Total    : (0.0893623 0.00110796 -0.000159096)
        Pressure : (0.0214793 0.00107789 -0.000174196)
        Viscous  : (0.067883 3.0069e-05 1.51e-05)
    Sum of moments
        Total    : (-5.61225e-08 3.8316e-05 0.000337389)
        Pressure : (-3.86496e-08 3.86961e-05 0.000313428)
        Viscous  : (-1.74729e-08 -3.80111e-07 2.39617e-05)
    writing force and moment files.

Time = 129

smoothSolver:  Solving for Ux, Initial residual = 4.19204e-07, Final residual = 2.9832e-08, No Iterations 1
smoothSolver:  Solving for Uy, Initial residual = 1.16883e-05, Final residual = 9.96924e-07, No Iterations 1
smoothSolver:  Solving for Uz, Initial residual = 1.46025e-05, Final residual = 1.34532e-06, No Iterations 1
GAMG:  Solving for p, Initial residual = 5.736e-05, Final residual = 2.89482e-06, No Iterations 2
time step continuity errors : sum local = 9.50793e-09, global = 3.1422e-09, cumulative = 3.87591e-06
smoothSolver:  Solving for omega, Initial residual = 8.87898e-09, Final residual = 8.87898e-09, No Iterations 0
smoothSolver:  Solving for k, Initial residual = 2.77027e-08, Final residual = 2.17166e-09, No Iterations 1
ExecutionTime = 76.35 s  ClockTime = 77 s

forces forcesFish write:
    Sum of forces
        Total    : (0.0893617 0.00110824 -0.000159119)
        Pressure : (0.0214791 0.00107817 -0.000174219)
        Viscous  : (0.0678826 3.00709e-05 1.51001e-05)
    Sum of moments
        Total    : (-5.59448e-08 3.8325e-05 0.000337491)
        Pressure : (-3.84833e-08 3.87052e-05 0.000313531)
        Viscous  : (-1.74615e-08 -3.8024e-07 2.39608e-05)
    writing force and moment files.

Time = 130

smoothSolver:  Solving for Ux, Initial residual = 3.54346e-07, Final residual = 2.59323e-08, No Iterations 1
smoothSolver:  Solving for Uy, Initial residual = 1.08502e-05, Final residual = 9.22719e-07, No Iterations 1
smoothSolver:  Solving for Uz, Initial residual = 1.35487e-05, Final residual = 1.24679e-06, No Iterations 1
GAMG:  Solving for p, Initial residual = 5.36682e-05, Final residual = 2.61658e-06, No Iterations 2
time step continuity errors : sum local = 8.59453e-09, global = 2.53773e-09, cumulative = 3.87845e-06
smoothSolver:  Solving for omega, Initial residual = 9.42992e-09, Final residual = 9.42992e-09, No Iterations 0
smoothSolver:  Solving for k, Initial residual = 2.60802e-08, Final residual = 2.0124e-09, No Iterations 1
ExecutionTime = 76.83 s  ClockTime = 77 s

forces forcesFish write:
    Sum of forces
        Total    : (0.0893612 0.00110849 -0.000159135)
        Pressure : (0.021479 0.00107842 -0.000174235)
        Viscous  : (0.0678822 3.00729e-05 1.51002e-05)
    Sum of moments
        Total    : (-5.58018e-08 3.8332e-05 0.000337587)
        Pressure : (-3.83499e-08 3.87124e-05 0.000313627)
        Viscous  : (-1.74519e-08 -3.80344e-07 2.39601e-05)
    writing force and moment files.

Time = 131

smoothSolver:  Solving for Ux, Initial residual = 3.04572e-07, Final residual = 2.28187e-08, No Iterations 1
smoothSolver:  Solving for Uy, Initial residual = 1.00686e-05, Final residual = 8.51103e-07, No Iterations 1
smoothSolver:  Solving for Uz, Initial residual = 1.2551e-05, Final residual = 1.1501e-06, No Iterations 1
GAMG:  Solving for p, Initial residual = 5.01067e-05, Final residual = 2.33092e-06, No Iterations 2
time step continuity errors : sum local = 7.65657e-09, global = 1.71029e-09, cumulative = 3.88016e-06
smoothSolver:  Solving for omega, Initial residual = 9.94922e-09, Final residual = 9.94922e-09, No Iterations 0
smoothSolver:  Solving for k, Initial residual = 2.44903e-08, Final residual = 1.86793e-09, No Iterations 1
ExecutionTime = 77.28 s  ClockTime = 77 s

forces forcesFish write:
    Sum of forces
        Total    : (0.0893607 0.00110874 -0.000159148)
        Pressure : (0.0214789 0.00107866 -0.000174248)
        Viscous  : (0.0678819 3.0075e-05 1.51002e-05)
    Sum of moments
        Total    : (-5.56792e-08 3.83376e-05 0.000337677)
        Pressure : (-3.82353e-08 3.87181e-05 0.000313718)
        Viscous  : (-1.74439e-08 -3.80427e-07 2.39596e-05)
    writing force and moment files.

Time = 132

smoothSolver:  Solving for Ux, Initial residual = 2.7056e-07, Final residual = 2.05426e-08, No Iterations 1
smoothSolver:  Solving for Uy, Initial residual = 9.37474e-06, Final residual = 7.85319e-07, No Iterations 1
smoothSolver:  Solving for Uz, Initial residual = 1.16332e-05, Final residual = 1.05911e-06, No Iterations 1
GAMG:  Solving for p, Initial residual = 4.66845e-05, Final residual = 2.03997e-06, No Iterations 2
time step continuity errors : sum local = 6.70107e-09, global = 7.0186e-10, cumulative = 3.88086e-06
smoothSolver:  Solving for omega, Initial residual = 1.04364e-08, Final residual = 1.58487e-09, No Iterations 1
smoothSolver:  Solving for k, Initial residual = 2.34328e-08, Final residual = 1.73627e-09, No Iterations 1
ExecutionTime = 77.75 s  ClockTime = 78 s

forces forcesFish write:
    Sum of forces
        Total    : (0.0893603 0.00110897 -0.000159159)
        Pressure : (0.0214787 0.00107889 -0.000174259)
        Viscous  : (0.0678815 3.00772e-05 1.51002e-05)
    Sum of moments
        Total    : (-5.55646e-08 3.83426e-05 0.000337764)
        Pressure : (-3.81273e-08 3.87231e-05 0.000313805)
        Viscous  : (-1.74373e-08 -3.80489e-07 2.39591e-05)
    writing force and moment files.

Time = 133

smoothSolver:  Solving for Ux, Initial residual = 2.50916e-07, Final residual = 1.90859e-08, No Iterations 1
smoothSolver:  Solving for Uy, Initial residual = 8.75967e-06, Final residual = 7.26082e-07, No Iterations 1
smoothSolver:  Solving for Uz, Initial residual = 1.08056e-05, Final residual = 9.75809e-07, No Iterations 1
GAMG:  Solving for p, Initial residual = 4.34544e-05, Final residual = 1.76552e-06, No Iterations 2
time step continuity errors : sum local = 5.79968e-09, global = -3.91946e-10, cumulative = 3.88047e-06
smoothSolver:  Solving for omega, Initial residual = 7.46841e-09, Final residual = 7.46841e-09, No Iterations 0
smoothSolver:  Solving for k, Initial residual = 2.18203e-08, Final residual = 1.61214e-09, No Iterations 1
ExecutionTime = 78.21 s  ClockTime = 78 s

forces forcesFish write:
    Sum of forces
        Total    : (0.0893598 0.00110919 -0.000159171)
        Pressure : (0.0214786 0.00107911 -0.000174271)
        Viscous  : (0.0678812 3.00796e-05 1.51001e-05)
    Sum of moments
        Total    : (-5.54504e-08 3.83473e-05 0.000337848)
        Pressure : (-3.80184e-08 3.87278e-05 0.000313889)
        Viscous  : (-1.7432e-08 -3.80532e-07 2.39588e-05)
    writing force and moment files.

Time = 134

smoothSolver:  Solving for Ux, Initial residual = 2.43503e-07, Final residual = 1.83578e-08, No Iterations 1
smoothSolver:  Solving for Uy, Initial residual = 8.21896e-06, Final residual = 6.74492e-07, No Iterations 1
smoothSolver:  Solving for Uz, Initial residual = 1.00839e-05, Final residual = 9.03381e-07, No Iterations 1
GAMG:  Solving for p, Initial residual = 4.04848e-05, Final residual = 1.54958e-06, No Iterations 2
time step continuity errors : sum local = 5.0904e-09, global = -1.37846e-09, cumulative = 3.87909e-06
smoothSolver:  Solving for omega, Initial residual = 7.8765e-09, Final residual = 7.8765e-09, No Iterations 0
smoothSolver:  Solving for k, Initial residual = 2.0306e-08, Final residual = 1.48265e-09, No Iterations 1
ExecutionTime = 78.69 s  ClockTime = 79 s

forces forcesFish write:
    Sum of forces
        Total    : (0.0893594 0.00110941 -0.000159183)
        Pressure : (0.0214785 0.00107933 -0.000174283)
        Viscous  : (0.0678809 3.0082e-05 1.51e-05)
    Sum of moments
        Total    : (-5.53339e-08 3.83519e-05 0.00033793)
        Pressure : (-3.79062e-08 3.87325e-05 0.000313971)
        Viscous  : (-1.74277e-08 -3.80556e-07 2.39587e-05)
    writing force and moment files.

Time = 135

smoothSolver:  Solving for Ux, Initial residual = 2.37722e-07, Final residual = 1.77202e-08, No Iterations 1
smoothSolver:  Solving for Uy, Initial residual = 7.74022e-06, Final residual = 6.29553e-07, No Iterations 1
smoothSolver:  Solving for Uz, Initial residual = 9.45723e-06, Final residual = 8.40558e-07, No Iterations 1
GAMG:  Solving for p, Initial residual = 3.78269e-05, Final residual = 1.46209e-06, No Iterations 2
time step continuity errors : sum local = 4.80307e-09, global = -2.08706e-09, cumulative = 3.87701e-06
smoothSolver:  Solving for omega, Initial residual = 8.26047e-09, Final residual = 8.26047e-09, No Iterations 0
smoothSolver:  Solving for k, Initial residual = 1.89304e-08, Final residual = 1.36783e-09, No Iterations 1
ExecutionTime = 79.15 s  ClockTime = 79 s


SIMPLE solution converged in 135 iterations

forces forcesFish write:
    Sum of forces
        Total    : (0.089359 0.00110962 -0.000159196)
        Pressure : (0.0214783 0.00107954 -0.000174296)
        Viscous  : (0.0678807 3.00844e-05 1.50999e-05)
    Sum of moments
        Total    : (-5.52144e-08 3.83566e-05 0.000338009)
        Pressure : (-3.779e-08 3.87372e-05 0.00031405)
        Viscous  : (-1.74244e-08 -3.80562e-07 2.39585e-05)
    writing force and moment files.

End

