/*---------------------------------------------------------------------------*\
| =========                 |                                                 |
| \\      /  F ield         | OpenFOAM: The Open Source CFD Toolbox           |
|  \\    /   O peration     | Version:  2512                                  |
|   \\  /    A nd           | Website:  www.openfoam.com                      |
|    \\/     M anipulation  |                                                 |
\*---------------------------------------------------------------------------*/
Build  : _bd2b6720-20260127 OPENFOAM=2512 version=2512
Arch   : "LSB;label=32;scalar=64"
Exec   : simpleFoam
Date   : Mar 27 2026
Time   : 17:18:57
Host   : mathias-laptop
PID    : 210560
I/O    : uncollated
Case   : /home/mat/OpenFOAM/mat-run/speed_sweep_runs/U_1p2
nProcs : 1
trapFpe: Floating point exception trapping enabled (FOAM_SIGFPE).
memory pool : not available
fileModificationChecking : Monitoring run-time modified files using timeStampMaster (fileModificationSkew 5, maxFileModificationPolls 20)
allowSystemOperations : Allowing user-supplied system call operations

// * * * * * * * * * * * * * * * * * * * * * * * * * * * * * * * * * * * * * //
Create time

Create mesh for time = 0


SIMPLE: convergence criteria
    field p	 tolerance 0.0001
    field U	 tolerance 1e-05
    field "(k|omega)"	 tolerance 1e-05

Reading field p

Reading field U

Reading/calculating face flux field phi

Selecting incompressible transport model Newtonian
Selecting turbulence model type RAS
Selecting RAS turbulence model kOmegaSST
Selecting patchDistMethod meshWave
RAS
{
    RASModel        kOmegaSST;
    turbulence      on;
    printCoeffs     on;
    alphaK1         0.85;
    alphaK2         1;
    alphaOmega1     0.5;
    alphaOmega2     0.856;
    gamma1          0.555556;
    gamma2          0.44;
    beta1           0.075;
    beta2           0.0828;
    betaStar        0.09;
    a1              0.31;
    b1              1;
    c1              10;
    F3              false;
    decayControl    false;
    kInf            0;
    omegaInf        0;
}

No MRF models present

No finite volume options present

Starting time loop

forces forcesFish:
    rho: rhoInf
    Freestream density (rhoInf) set to 1000
    Not including porosity effects

Time = 1

smoothSolver:  Solving for Ux, Initial residual = 0.999999, Final residual = 0.0487095, No Iterations 3
smoothSolver:  Solving for Uy, Initial residual = 1, Final residual = 0.0707828, No Iterations 3
smoothSolver:  Solving for Uz, Initial residual = 1, Final residual = 0.047359, No Iterations 3
GAMG:  Solving for p, Initial residual = 1, Final residual = 0.0489762, No Iterations 5
time step continuity errors : sum local = 8.0305e-05, global = -1.29758e-05, cumulative = -1.29758e-05
smoothSolver:  Solving for omega, Initial residual = 0.00558126, Final residual = 0.000219471, No Iterations 1
bounding omega, min: -8.11421 max: 11363.5 average: 125.303
smoothSolver:  Solving for k, Initial residual = 1, Final residual = 0.0281428, No Iterations 1
ExecutionTime = 3.37 s  ClockTime = 3 s

forces forcesFish write:
    Sum of forces
        Total    : (24.3072 -0.464835 -0.109915)
        Pressure : (23.7475 -0.464441 -0.109855)
        Viscous  : (0.559679 -0.000394642 -6.00552e-05)
    Sum of moments
        Total    : (0.0029755 0.0270757 0.325819)
        Pressure : (0.00297089 0.0271212 0.32268)
        Viscous  : (4.60963e-06 -4.54714e-05 0.00313918)
    writing force and moment files.

Time = 2

smoothSolver:  Solving for Ux, Initial residual = 0.0192721, Final residual = 0.00102496, No Iterations 2
smoothSolver:  Solving for Uy, Initial residual = 0.244594, Final residual = 0.0162146, No Iterations 2
smoothSolver:  Solving for Uz, Initial residual = 0.310657, Final residual = 0.0212248, No Iterations 2
GAMG:  Solving for p, Initial residual = 0.146115, Final residual = 0.012015, No Iterations 3
time step continuity errors : sum local = 0.00017519, global = -1.11123e-05, cumulative = -2.40881e-05
smoothSolver:  Solving for omega, Initial residual = 0.00348643, Final residual = 0.000127012, No Iterations 1
smoothSolver:  Solving for k, Initial residual = 0.316735, Final residual = 0.00909988, No Iterations 1
ExecutionTime = 4.27 s  ClockTime = 4 s

forces forcesFish write:
    Sum of forces
        Total    : (32.8452 -0.0326942 -0.172814)
        Pressure : (32.3009 -0.0325334 -0.172855)
        Viscous  : (0.544356 -0.000160774 4.07629e-05)
    Sum of moments
        Total    : (0.00465485 0.0421879 0.534616)
        Pressure : (0.00465226 0.0422727 0.531731)
        Viscous  : (2.59192e-06 -8.48328e-05 0.00288508)
    writing force and moment files.

Time = 3

smoothSolver:  Solving for Ux, Initial residual = 0.00642234, Final residual = 0.000350952, No Iterations 2
smoothSolver:  Solving for Uy, Initial residual = 0.156644, Final residual = 0.0104815, No Iterations 2
smoothSolver:  Solving for Uz, Initial residual = 0.202969, Final residual = 0.0139803, No Iterations 2
GAMG:  Solving for p, Initial residual = 0.442527, Final residual = 0.015592, No Iterations 3
time step continuity errors : sum local = 0.000102245, global = -1.09494e-05, cumulative = -3.50375e-05
smoothSolver:  Solving for omega, Initial residual = 0.00249729, Final residual = 9.84186e-05, No Iterations 1
smoothSolver:  Solving for k, Initial residual = 0.1748, Final residual = 0.00515677, No Iterations 1
ExecutionTime = 5.13 s  ClockTime = 5 s

forces forcesFish write:
    Sum of forces
        Total    : (31.8868 0.349178 -0.163508)
        Pressure : (31.3585 0.348915 -0.163705)
        Viscous  : (0.528253 0.000262503 0.000197029)
    Sum of moments
        Total    : (0.00480662 0.0428622 0.575875)
        Pressure : (0.00480694 0.0430008 0.57332)
        Viscous  : (-3.16135e-07 -0.000138577 0.00255496)
    writing force and moment files.

Time = 4

smoothSolver:  Solving for Ux, Initial residual = 0.00355118, Final residual = 0.000191926, No Iterations 2
smoothSolver:  Solving for Uy, Initial residual = 0.110534, Final residual = 0.00733363, No Iterations 2
smoothSolver:  Solving for Uz, Initial residual = 0.130339, Final residual = 0.00888604, No Iterations 2
GAMG:  Solving for p, Initial residual = 0.16379, Final residual = 0.00668488, No Iterations 3
time step continuity errors : sum local = 0.000159291, global = -8.75984e-06, cumulative = -4.37974e-05
smoothSolver:  Solving for omega, Initial residual = 0.00189896, Final residual = 8.07385e-05, No Iterations 1
smoothSolver:  Solving for k, Initial residual = 0.112822, Final residual = 0.00340209, No Iterations 1
ExecutionTime = 5.99 s  ClockTime = 6 s

forces forcesFish write:
    Sum of forces
        Total    : (25.2485 0.618912 -0.111956)
        Pressure : (24.7306 0.6185 -0.112313)
        Viscous  : (0.517894 0.00041171 0.000357096)
    Sum of moments
        Total    : (0.00403714 0.0335503 0.492694)
        Pressure : (0.00404019 0.033739 0.490404)
        Viscous  : (-3.05043e-06 -0.000188685 0.00229043)
    writing force and moment files.

Time = 5

smoothSolver:  Solving for Ux, Initial residual = 0.00219149, Final residual = 0.000111253, No Iterations 2
smoothSolver:  Solving for Uy, Initial residual = 0.0646139, Final residual = 0.00420235, No Iterations 2
smoothSolver:  Solving for Uz, Initial residual = 0.0792223, Final residual = 0.0052682, No Iterations 2
GAMG:  Solving for p, Initial residual = 0.081478, Final residual = 0.00402034, No Iterations 3
time step continuity errors : sum local = 0.000198702, global = -2.99408e-06, cumulative = -4.67915e-05
smoothSolver:  Solving for omega, Initial residual = 0.00149094, Final residual = 6.70429e-05, No Iterations 1
smoothSolver:  Solving for k, Initial residual = 0.078976, Final residual = 0.00242079, No Iterations 1
ExecutionTime = 6.88 s  ClockTime = 7 s

forces forcesFish write:
    Sum of forces
        Total    : (16.3166 0.769441 -0.0517214)
        Pressure : (15.8031 0.768678 -0.0522104)
        Viscous  : (0.513445 0.000762424 0.000489031)
    Sum of moments
        Total    : (0.00294915 0.0204429 0.341301)
        Pressure : (0.00295445 0.0206686 0.339103)
        Viscous  : (-5.29179e-06 -0.000225722 0.00219881)
    writing force and moment files.

Time = 6

smoothSolver:  Solving for Ux, Initial residual = 0.00151124, Final residual = 6.0454e-05, No Iterations 2
smoothSolver:  Solving for Uy, Initial residual = 0.0348195, Final residual = 0.00188077, No Iterations 2
smoothSolver:  Solving for Uz, Initial residual = 0.0454346, Final residual = 0.00252713, No Iterations 2
GAMG:  Solving for p, Initial residual = 0.045937, Final residual = 0.00259138, No Iterations 3
time step continuity errors : sum local = 0.000194955, global = 4.88807e-06, cumulative = -4.19034e-05
smoothSolver:  Solving for omega, Initial residual = 0.00119445, Final residual = 5.54559e-05, No Iterations 1
smoothSolver:  Solving for k, Initial residual = 0.0583998, Final residual = 0.00181476, No Iterations 1
ExecutionTime = 7.77 s  ClockTime = 7 s

forces forcesFish write:
    Sum of forces
        Total    : (7.79327 0.793741 -0.00758973)
        Pressure : (7.27852 0.792662 -0.00818436)
        Viscous  : (0.514748 0.00107984 0.00059463)
    Sum of moments
        Total    : (0.00199042 0.00863547 0.17428)
        Pressure : (0.00199732 0.00888813 0.172034)
        Viscous  : (-6.89979e-06 -0.000252661 0.00224543)
    writing force and moment files.

Time = 7

smoothSolver:  Solving for Ux, Initial residual = 0.0012555, Final residual = 3.57962e-05, No Iterations 2
smoothSolver:  Solving for Uy, Initial residual = 0.0269121, Final residual = 0.00106852, No Iterations 2
smoothSolver:  Solving for Uz, Initial residual = 0.0383725, Final residual = 0.0014378, No Iterations 2
GAMG:  Solving for p, Initial residual = 0.0302403, Final residual = 0.00164466, No Iterations 3
time step continuity errors : sum local = 0.000158095, global = 1.2219e-05, cumulative = -2.96844e-05
smoothSolver:  Solving for omega, Initial residual = 0.000973782, Final residual = 4.60804e-05, No Iterations 1
smoothSolver:  Solving for k, Initial residual = 0.0450222, Final residual = 0.0014174, No Iterations 1
ExecutionTime = 8.65 s  ClockTime = 8 s

forces forcesFish write:
    Sum of forces
        Total    : (1.33145 0.720956 0.00762417)
        Pressure : (0.811014 0.719793 0.0069481)
        Viscous  : (0.520439 0.00116327 0.000676068)
    Sum of moments
        Total    : (0.0014008 0.00141105 0.0352356)
        Pressure : (0.00140901 0.00168227 0.0328411)
        Viscous  : (-8.21688e-06 -0.000271224 0.00239454)
    writing force and moment files.

Time = 8

smoothSolver:  Solving for Ux, Initial residual = 0.00121433, Final residual = 3.6955e-05, No Iterations 2
smoothSolver:  Solving for Uy, Initial residual = 0.0267113, Final residual = 0.00127045, No Iterations 2
smoothSolver:  Solving for Uz, Initial residual = 0.0456792, Final residual = 0.00216812, No Iterations 2
GAMG:  Solving for p, Initial residual = 0.0261176, Final residual = 0.00240753, No Iterations 2
time step continuity errors : sum local = 0.000261982, global = 1.8587e-05, cumulative = -1.10974e-05
smoothSolver:  Solving for omega, Initial residual = 0.000806973, Final residual = 3.88476e-05, No Iterations 1
smoothSolver:  Solving for k, Initial residual = 0.0358785, Final residual = 0.0011467, No Iterations 1
ExecutionTime = 9.48 s  ClockTime = 9 s

forces forcesFish write:
    Sum of forces
        Total    : (-2.18225 0.604062 0.0105303)
        Pressure : (-2.71072 0.603153 0.00981079)
        Viscous  : (0.528468 0.000909216 0.000719461)
    Sum of moments
        Total    : (0.00103814 -0.0021282 -0.0456352)
        Pressure : (0.00104736 -0.00184956 -0.0482179)
        Viscous  : (-9.21811e-06 -0.000278636 0.00258276)
    writing force and moment files.

Time = 9

smoothSolver:  Solving for Ux, Initial residual = 0.00126523, Final residual = 4.45286e-05, No Iterations 2
smoothSolver:  Solving for Uy, Initial residual = 0.0234949, Final residual = 0.00119876, No Iterations 2
smoothSolver:  Solving for Uz, Initial residual = 0.0488314, Final residual = 0.00253296, No Iterations 2
GAMG:  Solving for p, Initial residual = 0.0283443, Final residual = 0.00212691, No Iterations 2
time step continuity errors : sum local = 0.000238386, global = 2.60387e-05, cumulative = 1.49413e-05
smoothSolver:  Solving for omega, Initial residual = 0.000677994, Final residual = 3.32262e-05, No Iterations 1
smoothSolver:  Solving for k, Initial residual = 0.0293677, Final residual = 0.000954483, No Iterations 1
ExecutionTime = 10.32 s  ClockTime = 10 s

forces forcesFish write:
    Sum of forces
        Total    : (-3.37723 0.465585 -0.0133389)
        Pressure : (-3.9139 0.465089 -0.0140695)
        Viscous  : (0.536665 0.000496131 0.000730647)
    Sum of moments
        Total    : (0.00109102 -0.000797206 -0.076944)
        Pressure : (0.0011009 -0.000516563 -0.0797211)
        Viscous  : (-9.87425e-06 -0.000280643 0.00277713)
    writing force and moment files.

Time = 10

smoothSolver:  Solving for Ux, Initial residual = 0.00130511, Final residual = 4.86824e-05, No Iterations 2
smoothSolver:  Solving for Uy, Initial residual = 0.0185242, Final residual = 0.00093521, No Iterations 2
smoothSolver:  Solving for Uz, Initial residual = 0.0455921, Final residual = 0.00235355, No Iterations 2
GAMG:  Solving for p, Initial residual = 0.0318559, Final residual = 0.00247902, No Iterations 2
time step continuity errors : sum local = 0.000269088, global = 3.26941e-05, cumulative = 4.76354e-05
smoothSolver:  Solving for omega, Initial residual = 0.000576244, Final residual = 2.88146e-05, No Iterations 1
smoothSolver:  Solving for k, Initial residual = 0.0245464, Final residual = 0.00081222, No Iterations 1
ExecutionTime = 11.19 s  ClockTime = 11 s

forces forcesFish write:
    Sum of forces
        Total    : (-2.92547 0.320741 -0.0496757)
        Pressure : (-3.46868 0.320627 -0.0503796)
        Viscous  : (0.543209 0.000114286 0.000703888)
    Sum of moments
        Total    : (0.00137072 0.00323286 -0.0708045)
        Pressure : (0.00138105 0.00350642 -0.0737641)
        Viscous  : (-1.03349e-05 -0.000273569 0.00295953)
    writing force and moment files.

Time = 11

smoothSolver:  Solving for Ux, Initial residual = 0.00127335, Final residual = 4.68197e-05, No Iterations 2
smoothSolver:  Solving for Uy, Initial residual = 0.0138159, Final residual = 0.00064096, No Iterations 2
smoothSolver:  Solving for Uz, Initial residual = 0.0388032, Final residual = 0.00185052, No Iterations 2
GAMG:  Solving for p, Initial residual = 0.0334249, Final residual = 0.00278635, No Iterations 2
time step continuity errors : sum local = 0.000280342, global = 3.60746e-05, cumulative = 8.37101e-05
smoothSolver:  Solving for omega, Initial residual = 0.00049433, Final residual = 2.52896e-05, No Iterations 1
smoothSolver:  Solving for k, Initial residual = 0.0208463, Final residual = 0.000701532, No Iterations 1
ExecutionTime = 12.04 s  ClockTime = 12 s

forces forcesFish write:
    Sum of forces
        Total    : (-1.54134 0.168542 -0.0861673)
        Pressure : (-2.08844 0.168621 -0.0868293)
        Viscous  : (0.547094 -7.82635e-05 0.00066203)
    Sum of moments
        Total    : (0.00172114 0.00793345 -0.0442029)
        Pressure : (0.00173185 0.00819374 -0.0473232)
        Viscous  : (-1.07104e-05 -0.000260292 0.00312023)
    writing force and moment files.

Time = 12

smoothSolver:  Solving for Ux, Initial residual = 0.00116862, Final residual = 3.98415e-05, No Iterations 2
smoothSolver:  Solving for Uy, Initial residual = 0.0106656, Final residual = 0.000405679, No Iterations 2
smoothSolver:  Solving for Uz, Initial residual = 0.0321626, Final residual = 0.00125822, No Iterations 2
GAMG:  Solving for p, Initial residual = 0.03387, Final residual = 0.00290986, No Iterations 2
time step continuity errors : sum local = 0.000262279, global = 3.59992e-05, cumulative = 0.000119709
smoothSolver:  Solving for omega, Initial residual = 0.000426805, Final residual = 2.22816e-05, No Iterations 1
smoothSolver:  Solving for k, Initial residual = 0.0179258, Final residual = 0.000612615, No Iterations 1
ExecutionTime = 12.88 s  ClockTime = 13 s

forces forcesFish write:
    Sum of forces
        Total    : (0.171672 0.0237559 -0.108865)
        Pressure : (-0.376553 0.0238621 -0.109478)
        Viscous  : (0.548225 -0.000106186 0.000613648)
    Sum of moments
        Total    : (0.00199764 0.010931 -0.0118943)
        Pressure : (0.00200876 0.0111831 -0.0151534)
        Viscous  : (-1.11275e-05 -0.000252078 0.00325908)
    writing force and moment files.

Time = 13

smoothSolver:  Solving for Ux, Initial residual = 0.00101427, Final residual = 3.01368e-05, No Iterations 2
smoothSolver:  Solving for Uy, Initial residual = 0.0095792, Final residual = 0.000332011, No Iterations 2
smoothSolver:  Solving for Uz, Initial residual = 0.0297113, Final residual = 0.00100003, No Iterations 2
GAMG:  Solving for p, Initial residual = 0.0339565, Final residual = 0.00279492, No Iterations 2
time step continuity errors : sum local = 0.00022192, global = 3.28882e-05, cumulative = 0.000152597
smoothSolver:  Solving for omega, Initial residual = 0.000370454, Final residual = 1.96779e-05, No Iterations 1
smoothSolver:  Solving for k, Initial residual = 0.0155678, Final residual = 0.000539295, No Iterations 1
ExecutionTime = 13.72 s  ClockTime = 13 s

forces forcesFish write:
    Sum of forces
        Total    : (1.74514 -0.0895724 -0.110618)
        Pressure : (1.19813 -0.089654 -0.111184)
        Viscous  : (0.547008 8.16314e-05 0.000565911)
    Sum of moments
        Total    : (0.00209111 0.0111247 0.016577)
        Pressure : (0.0021025 0.0113651 0.0132047)
        Viscous  : (-1.13881e-05 -0.000240342 0.00337227)
    writing force and moment files.

Time = 14

smoothSolver:  Solving for Ux, Initial residual = 0.000864542, Final residual = 2.21979e-05, No Iterations 2
smoothSolver:  Solving for Uy, Initial residual = 0.00972548, Final residual = 0.000367504, No Iterations 2
smoothSolver:  Solving for Uz, Initial residual = 0.0303827, Final residual = 0.00109623, No Iterations 2
GAMG:  Solving for p, Initial residual = 0.0353199, Final residual = 0.00251606, No Iterations 2
time step continuity errors : sum local = 0.000177354, global = 2.82255e-05, cumulative = 0.000180823
smoothSolver:  Solving for omega, Initial residual = 0.000323118, Final residual = 1.74156e-05, No Iterations 1
smoothSolver:  Solving for k, Initial residual = 0.0136286, Final residual = 0.00047765, No Iterations 1
ExecutionTime = 14.58 s  ClockTime = 14 s

forces forcesFish write:
    Sum of forces
        Total    : (2.89925 -0.148235 -0.0924586)
        Pressure : (2.355 -0.148628 -0.0929858)
        Viscous  : (0.54425 0.000392763 0.000527196)
    Sum of moments
        Total    : (0.00198578 0.00863848 0.0377662)
        Pressure : (0.0019973 0.0088673 0.0343069)
        Viscous  : (-1.15233e-05 -0.00022882 0.00345925)
    writing force and moment files.

Time = 15

smoothSolver:  Solving for Ux, Initial residual = 0.000770433, Final residual = 1.75543e-05, No Iterations 2
smoothSolver:  Solving for Uy, Initial residual = 0.00978649, Final residual = 0.000389798, No Iterations 2
smoothSolver:  Solving for Uz, Initial residual = 0.0304501, Final residual = 0.00119839, No Iterations 2
GAMG:  Solving for p, Initial residual = 0.0379629, Final residual = 0.00226752, No Iterations 2
time step continuity errors : sum local = 0.000146787, global = 2.25037e-05, cumulative = 0.000203327
smoothSolver:  Solving for omega, Initial residual = 0.000283027, Final residual = 1.54956e-05, No Iterations 1
smoothSolver:  Solving for k, Initial residual = 0.0120092, Final residual = 0.000425195, No Iterations 1
ExecutionTime = 15.42 s  ClockTime = 15 s

forces forcesFish write:
    Sum of forces
        Total    : (3.53705 -0.145472 -0.0630079)
        Pressure : (2.99626 -0.14623 -0.0635087)
        Viscous  : (0.540793 0.000757177 0.000500869)
    Sum of moments
        Total    : (0.00174263 0.00479517 0.0514425)
        Pressure : (0.00175427 0.00501487 0.0479145)
        Viscous  : (-1.16398e-05 -0.000219701 0.00352804)
    writing force and moment files.

Time = 16

smoothSolver:  Solving for Ux, Initial residual = 0.000708741, Final residual = 1.53012e-05, No Iterations 2
smoothSolver:  Solving for Uy, Initial residual = 0.00934208, Final residual = 0.000358635, No Iterations 2
smoothSolver:  Solving for Uz, Initial residual = 0.029035, Final residual = 0.00113574, No Iterations 2
GAMG:  Solving for p, Initial residual = 0.0401058, Final residual = 0.00229998, No Iterations 2
time step continuity errors : sum local = 0.000143658, global = 1.62743e-05, cumulative = 0.000219601
smoothSolver:  Solving for omega, Initial residual = 0.000248774, Final residual = 1.38593e-05, No Iterations 1
smoothSolver:  Solving for k, Initial residual = 0.0106332, Final residual = 0.000379911, No Iterations 1
ExecutionTime = 16.27 s  ClockTime = 16 s

forces forcesFish write:
    Sum of forces
        Total    : (3.73302 -0.0943046 -0.0315832)
        Pressure : (3.19573 -0.0953899 -0.0320736)
        Viscous  : (0.537297 0.00108528 0.000490408)
    Sum of moments
        Total    : (0.00144235 0.000958781 0.059444)
        Pressure : (0.00145413 0.00117378 0.055865)
        Viscous  : (-1.1785e-05 -0.000214994 0.00357904)
    writing force and moment files.

Time = 17

smoothSolver:  Solving for Ux, Initial residual = 0.000654135, Final residual = 1.40633e-05, No Iterations 2
smoothSolver:  Solving for Uy, Initial residual = 0.00836365, Final residual = 0.000288196, No Iterations 2
smoothSolver:  Solving for Uz, Initial residual = 0.0260237, Final residual = 0.000938435, No Iterations 2
GAMG:  Solving for p, Initial residual = 0.0393145, Final residual = 0.00233963, No Iterations 2
time step continuity errors : sum local = 0.000146914, global = 7.59395e-06, cumulative = 0.000227195
smoothSolver:  Solving for omega, Initial residual = 0.000219069, Final residual = 1.23841e-05, No Iterations 1
smoothSolver:  Solving for k, Initial residual = 0.00945667, Final residual = 0.000340881, No Iterations 1
ExecutionTime = 17.13 s  ClockTime = 17 s

forces forcesFish write:
    Sum of forces
        Total    : (3.64987 -0.0145846 -0.00201044)
        Pressure : (3.11571 -0.0159261 -0.00250187)
        Viscous  : (0.534158 0.0013415 0.000491423)
    Sum of moments
        Total    : (0.00111927 -0.0022913 0.0636476)
        Pressure : (0.00113128 -0.00207769 0.0600265)
        Viscous  : (-1.20152e-05 -0.000213614 0.00362109)
    writing force and moment files.

Time = 18

smoothSolver:  Solving for Ux, Initial residual = 0.000603777, Final residual = 1.30135e-05, No Iterations 2
smoothSolver:  Solving for Uy, Initial residual = 0.00723446, Final residual = 0.000211379, No Iterations 2
smoothSolver:  Solving for Uz, Initial residual = 0.0223653, Final residual = 0.000681485, No Iterations 2
GAMG:  Solving for p, Initial residual = 0.0361805, Final residual = 0.00220365, No Iterations 2
time step continuity errors : sum local = 0.000142732, global = -1.2393e-06, cumulative = 0.000225956
smoothSolver:  Solving for omega, Initial residual = 0.000193197, Final residual = 1.10395e-05, No Iterations 1
smoothSolver:  Solving for k, Initial residual = 0.00844649, Final residual = 0.000307217, No Iterations 1
ExecutionTime = 18.02 s  ClockTime = 18 s

forces forcesFish write:
    Sum of forces
        Total    : (3.42903 0.0762418 0.0212598)
        Pressure : (2.89745 0.0747489 0.020759)
        Viscous  : (0.531575 0.00149295 0.000500779)
    Sum of moments
        Total    : (0.000816066 -0.00426615 0.0661951)
        Pressure : (0.000828398 -0.00405081 0.0625412)
        Viscous  : (-1.2331e-05 -0.000215337 0.00365392)
    writing force and moment files.

Time = 19

smoothSolver:  Solving for Ux, Initial residual = 0.000553537, Final residual = 1.20251e-05, No Iterations 2
smoothSolver:  Solving for Uy, Initial residual = 0.00630299, Final residual = 0.000157053, No Iterations 2
smoothSolver:  Solving for Uz, Initial residual = 0.0194224, Final residual = 0.000465914, No Iterations 2
GAMG:  Solving for p, Initial residual = 0.0319187, Final residual = 0.00197463, No Iterations 2
time step continuity errors : sum local = 0.000133512, global = -8.51918e-06, cumulative = 0.000217436
smoothSolver:  Solving for omega, Initial residual = 0.000170632, Final residual = 9.8402e-06, No Iterations 1
smoothSolver:  Solving for k, Initial residual = 0.00757212, Final residual = 0.000277888, No Iterations 1
ExecutionTime = 18.86 s  ClockTime = 19 s

forces forcesFish write:
    Sum of forces
        Total    : (3.18031 0.159257 0.0333585)
        Pressure : (2.65077 0.15772 0.0328448)
        Viscous  : (0.52953 0.0015369 0.000513704)
    Sum of moments
        Total    : (0.000589155 -0.00428872 0.0683609)
        Pressure : (0.000601892 -0.00406969 0.0646823)
        Viscous  : (-1.27367e-05 -0.000219029 0.00367866)
    writing force and moment files.

Time = 20

smoothSolver:  Solving for Ux, Initial residual = 0.000504783, Final residual = 1.10317e-05, No Iterations 2
smoothSolver:  Solving for Uy, Initial residual = 0.0056734, Final residual = 0.000137855, No Iterations 2
smoothSolver:  Solving for Uz, Initial residual = 0.0177372, Final residual = 0.000390623, No Iterations 2
GAMG:  Solving for p, Initial residual = 0.0275851, Final residual = 0.00173601, No Iterations 2
time step continuity errors : sum local = 0.000122477, global = -1.47719e-05, cumulative = 0.000202664
smoothSolver:  Solving for omega, Initial residual = 0.000150937, Final residual = 8.79017e-06, No Iterations 1
smoothSolver:  Solving for k, Initial residual = 0.00680932, Final residual = 0.000252121, No Iterations 1
ExecutionTime = 19.73 s  ClockTime = 19 s

forces forcesFish write:
    Sum of forces
        Total    : (2.97685 0.217929 0.0320637)
        Pressure : (2.44896 0.216436 0.0315369)
        Viscous  : (0.52789 0.00149243 0.000526818)
    Sum of moments
        Total    : (0.000477093 -0.00216875 0.0702955)
        Pressure : (0.000490311 -0.00194486 0.0665987)
        Viscous  : (-1.3218e-05 -0.00022389 0.00369688)
    writing force and moment files.

Time = 21

smoothSolver:  Solving for Ux, Initial residual = 0.000466484, Final residual = 1.01906e-05, No Iterations 2
smoothSolver:  Solving for Uy, Initial residual = 0.00517348, Final residual = 0.000133898, No Iterations 2
smoothSolver:  Solving for Uz, Initial residual = 0.0166968, Final residual = 0.000394511, No Iterations 2
GAMG:  Solving for p, Initial residual = 0.0246314, Final residual = 0.00153058, No Iterations 2
time step continuity errors : sum local = 0.000111662, global = -1.95918e-05, cumulative = 0.000183073
smoothSolver:  Solving for omega, Initial residual = 0.000133709, Final residual = 7.88494e-06, No Iterations 1
smoothSolver:  Solving for k, Initial residual = 0.00613899, Final residual = 0.000229337, No Iterations 1
ExecutionTime = 20.56 s  ClockTime = 20 s

forces forcesFish write:
    Sum of forces
        Total    : (2.85243 0.243204 0.0188091)
        Pressure : (2.32596 0.24181 0.0182709)
        Viscous  : (0.526469 0.00139363 0.000538208)
    Sum of moments
        Total    : (0.000485238 0.00167356 0.071503)
        Pressure : (0.000499019 0.00190273 0.0677922)
        Viscous  : (-1.37807e-05 -0.000229172 0.00371075)
    writing force and moment files.

Time = 22

smoothSolver:  Solving for Ux, Initial residual = 0.000428981, Final residual = 9.45967e-06, No Iterations 2
smoothSolver:  Solving for Uy, Initial residual = 0.00466764, Final residual = 0.000124996, No Iterations 2
smoothSolver:  Solving for Uz, Initial residual = 0.0154912, Final residual = 0.000394168, No Iterations 2
GAMG:  Solving for p, Initial residual = 0.0231406, Final residual = 0.00139374, No Iterations 2
time step continuity errors : sum local = 0.000103813, global = -2.28373e-05, cumulative = 0.000160235
smoothSolver:  Solving for omega, Initial residual = 0.000118582, Final residual = 7.10651e-06, No Iterations 1
smoothSolver:  Solving for k, Initial residual = 0.00554593, Final residual = 0.000209076, No Iterations 1
ExecutionTime = 21.37 s  ClockTime = 21 s

forces forcesFish write:
    Sum of forces
        Total    : (2.80728 0.235796 -0.00228961)
        Pressure : (2.28219 0.234517 -0.00283678)
        Viscous  : (0.525093 0.00127899 0.000547178)
    Sum of moments
        Total    : (0.000588819 0.00642904 0.0714877)
        Pressure : (0.000603225 0.00666347 0.0677657)
        Viscous  : (-1.44062e-05 -0.000234431 0.003722)
    writing force and moment files.

Time = 23

smoothSolver:  Solving for Ux, Initial residual = 0.000393419, Final residual = 8.6239e-06, No Iterations 2
smoothSolver:  Solving for Uy, Initial residual = 0.00414914, Final residual = 0.000108794, No Iterations 2
smoothSolver:  Solving for Uz, Initial residual = 0.0139687, Final residual = 0.000358622, No Iterations 2
GAMG:  Solving for p, Initial residual = 0.0220184, Final residual = 0.00130194, No Iterations 2
time step continuity errors : sum local = 9.77958e-05, global = -2.44453e-05, cumulative = 0.00013579
smoothSolver:  Solving for omega, Initial residual = 0.000105245, Final residual = 6.43698e-06, No Iterations 1
smoothSolver:  Solving for k, Initial residual = 0.00501781, Final residual = 0.000190938, No Iterations 1
ExecutionTime = 22.18 s  ClockTime = 22 s

forces forcesFish write:
    Sum of forces
        Total    : (2.82064 0.20346 -0.0268565)
        Pressure : (2.29701 0.202275 -0.0274121)
        Viscous  : (0.52363 0.00118468 0.000555629)
    Sum of moments
        Total    : (0.000754298 0.0113258 0.0701217)
        Pressure : (0.000769361 0.0115657 0.0663886)
        Viscous  : (-1.50634e-05 -0.0002399 0.00373318)
    writing force and moment files.

Time = 24

smoothSolver:  Solving for Ux, Initial residual = 0.000364939, Final residual = 3.52343e-05, No Iterations 1
smoothSolver:  Solving for Uy, Initial residual = 0.00370681, Final residual = 8.99871e-05, No Iterations 2
smoothSolver:  Solving for Uz, Initial residual = 0.0124139, Final residual = 0.000297412, No Iterations 2
GAMG:  Solving for p, Initial residual = 0.0207474, Final residual = 0.00119878, No Iterations 2
time step continuity errors : sum local = 8.98949e-05, global = -2.45356e-05, cumulative = 0.000111254
smoothSolver:  Solving for omega, Initial residual = 9.33757e-05, Final residual = 5.84426e-06, No Iterations 1
smoothSolver:  Solving for k, Initial residual = 0.00454479, Final residual = 0.000174627, No Iterations 1
ExecutionTime = 22.98 s  ClockTime = 23 s

forces forcesFish write:
    Sum of forces
        Total    : (2.86444 0.157677 -0.0511043)
        Pressure : (2.34229 0.156541 -0.0516692)
        Viscous  : (0.522149 0.0011366 0.000564905)
    Sum of moments
        Total    : (0.0009504 0.0157166 0.0677324)
        Pressure : (0.000966124 0.0159622 0.0639835)
        Viscous  : (-1.57241e-05 -0.000245532 0.00374888)
    writing force and moment files.

Time = 25

smoothSolver:  Solving for Ux, Initial residual = 0.00034153, Final residual = 3.19684e-05, No Iterations 1
smoothSolver:  Solving for Uy, Initial residual = 0.0034336, Final residual = 7.48064e-05, No Iterations 2
smoothSolver:  Solving for Uz, Initial residual = 0.0110945, Final residual = 0.000231637, No Iterations 2
GAMG:  Solving for p, Initial residual = 0.0197194, Final residual = 0.00107921, No Iterations 2
time step continuity errors : sum local = 8.02777e-05, global = -2.33449e-05, cumulative = 8.79096e-05
smoothSolver:  Solving for omega, Initial residual = 8.28343e-05, Final residual = 5.32736e-06, No Iterations 1
smoothSolver:  Solving for k, Initial residual = 0.00411843, Final residual = 0.000159826, No Iterations 1
ExecutionTime = 23.8 s  ClockTime = 24 s

forces forcesFish write:
    Sum of forces
        Total    : (2.91359 0.108001 -0.0717233)
        Pressure : (2.39308 0.106861 -0.0722991)
        Viscous  : (0.520508 0.00114029 0.000575859)
    Sum of moments
        Total    : (0.00114625 0.0190522 0.064506)
        Pressure : (0.00116262 0.0193037 0.0607387)
        Viscous  : (-1.63687e-05 -0.000251532 0.00376732)
    writing force and moment files.

Time = 26

smoothSolver:  Solving for Ux, Initial residual = 0.000315122, Final residual = 2.86788e-05, No Iterations 1
smoothSolver:  Solving for Uy, Initial residual = 0.00327009, Final residual = 0.000325008, No Iterations 1
smoothSolver:  Solving for Uz, Initial residual = 0.010126, Final residual = 0.000944881, No Iterations 1
GAMG:  Solving for p, Initial residual = 0.0183308, Final residual = 0.000944906, No Iterations 2
time step continuity errors : sum local = 6.95038e-05, global = -2.08141e-05, cumulative = 6.70955e-05
smoothSolver:  Solving for omega, Initial residual = 7.34069e-05, Final residual = 4.86285e-06, No Iterations 1
smoothSolver:  Solving for k, Initial residual = 0.00373208, Final residual = 0.000146343, No Iterations 1
ExecutionTime = 24.63 s  ClockTime = 24 s

forces forcesFish write:
    Sum of forces
        Total    : (2.94871 0.0627894 -0.0868265)
        Pressure : (2.42997 0.061608 -0.0874141)
        Viscous  : (0.518738 0.00118137 0.000587598)
    Sum of moments
        Total    : (0.00131449 0.0211197 0.0608585)
        Pressure : (0.00133135 0.0213773 0.0570756)
        Viscous  : (-1.68639e-05 -0.000257571 0.00378293)
    writing force and moment files.

Time = 27

smoothSolver:  Solving for Ux, Initial residual = 0.000291158, Final residual = 2.58923e-05, No Iterations 1
smoothSolver:  Solving for Uy, Initial residual = 0.00317284, Final residual = 0.000309307, No Iterations 1
smoothSolver:  Solving for Uz, Initial residual = 0.00958474, Final residual = 0.000887168, No Iterations 1
GAMG:  Solving for p, Initial residual = 0.0168914, Final residual = 0.000834852, No Iterations 2
time step continuity errors : sum local = 6.06957e-05, global = -1.74681e-05, cumulative = 4.96274e-05
smoothSolver:  Solving for omega, Initial residual = 6.50051e-05, Final residual = 4.44592e-06, No Iterations 1
smoothSolver:  Solving for k, Initial residual = 0.00338024, Final residual = 0.00013402, No Iterations 1
ExecutionTime = 25.46 s  ClockTime = 25 s

forces forcesFish write:
    Sum of forces
        Total    : (2.96313 0.027726 -0.0950725)
        Pressure : (2.44623 0.026468 -0.0956696)
        Viscous  : (0.516903 0.00125795 0.000597049)
    Sum of moments
        Total    : (0.00143452 0.0217736 0.0573322)
        Pressure : (0.00145182 0.0220361 0.0535312)
        Viscous  : (-1.72955e-05 -0.000262505 0.003801)
    writing force and moment files.

Time = 28

smoothSolver:  Solving for Ux, Initial residual = 0.000273454, Final residual = 2.37671e-05, No Iterations 1
smoothSolver:  Solving for Uy, Initial residual = 0.00302984, Final residual = 0.000292264, No Iterations 1
smoothSolver:  Solving for Uz, Initial residual = 0.00901595, Final residual = 0.000838659, No Iterations 1
GAMG:  Solving for p, Initial residual = 0.0156815, Final residual = 0.000770839, No Iterations 2
time step continuity errors : sum local = 5.54665e-05, global = -1.36018e-05, cumulative = 3.60256e-05
smoothSolver:  Solving for omega, Initial residual = 5.74861e-05, Final residual = 4.06667e-06, No Iterations 1
smoothSolver:  Solving for k, Initial residual = 0.00305852, Final residual = 0.000122731, No Iterations 1
ExecutionTime = 26.25 s  ClockTime = 26 s

forces forcesFish write:
    Sum of forces
        Total    : (2.95698 0.00572012 -0.096448)
        Pressure : (2.44192 0.00436223 -0.0970571)
        Viscous  : (0.515055 0.0013579 0.000609097)
    Sum of moments
        Total    : (0.00149708 0.0211273 0.0544187)
        Pressure : (0.00151476 0.0213955 0.050598)
        Viscous  : (-1.76777e-05 -0.000268221 0.00382072)
    writing force and moment files.

Time = 29

smoothSolver:  Solving for Ux, Initial residual = 0.000255823, Final residual = 2.19431e-05, No Iterations 1
smoothSolver:  Solving for Uy, Initial residual = 0.00283554, Final residual = 0.000267817, No Iterations 1
smoothSolver:  Solving for Uz, Initial residual = 0.00830249, Final residual = 0.000770783, No Iterations 1
GAMG:  Solving for p, Initial residual = 0.014837, Final residual = 0.000731101, No Iterations 2
time step continuity errors : sum local = 5.22071e-05, global = -9.30359e-06, cumulative = 2.6722e-05
smoothSolver:  Solving for omega, Initial residual = 5.07429e-05, Final residual = 3.72085e-06, No Iterations 1
smoothSolver:  Solving for k, Initial residual = 0.00276333, Final residual = 0.000112367, No Iterations 1
ExecutionTime = 27.08 s  ClockTime = 27 s

forces forcesFish write:
    Sum of forces
        Total    : (2.93484 -0.00344342 -0.0921775)
        Pressure : (2.42159 -0.00491453 -0.0927971)
        Viscous  : (0.513245 0.00147111 0.000619629)
    Sum of moments
        Total    : (0.00150501 0.0195088 0.0523895)
        Pressure : (0.00152301 0.0197818 0.0485477)
        Viscous  : (-1.80021e-05 -0.000273011 0.00384181)
    writing force and moment files.

Time = 30

smoothSolver:  Solving for Ux, Initial residual = 0.000239935, Final residual = 2.02863e-05, No Iterations 1
smoothSolver:  Solving for Uy, Initial residual = 0.00259892, Final residual = 0.000239273, No Iterations 1
smoothSolver:  Solving for Uz, Initial residual = 0.00750714, Final residual = 0.000683926, No Iterations 1
GAMG:  Solving for p, Initial residual = 0.0139669, Final residual = 0.000699401, No Iterations 2
time step continuity errors : sum local = 4.97192e-05, global = -4.55916e-06, cumulative = 2.21628e-05
smoothSolver:  Solving for omega, Initial residual = 4.46974e-05, Final residual = 3.40519e-06, No Iterations 1
smoothSolver:  Solving for k, Initial residual = 0.00249179, Final residual = 0.000102838, No Iterations 1
ExecutionTime = 27.9 s  ClockTime = 28 s

forces forcesFish write:
    Sum of forces
        Total    : (2.90309 -0.00243554 -0.0841134)
        Pressure : (2.39158 -0.00402504 -0.0847409)
        Viscous  : (0.511508 0.0015895 0.000627523)
    Sum of moments
        Total    : (0.00146887 0.0173242 0.0512388)
        Pressure : (0.00148714 0.0176009 0.0473745)
        Viscous  : (-1.82607e-05 -0.000276694 0.00386421)
    writing force and moment files.

Time = 31

smoothSolver:  Solving for Ux, Initial residual = 0.000225177, Final residual = 1.87908e-05, No Iterations 1
smoothSolver:  Solving for Uy, Initial residual = 0.00235667, Final residual = 0.000212018, No Iterations 1
smoothSolver:  Solving for Uz, Initial residual = 0.00670748, Final residual = 0.000592345, No Iterations 1
GAMG:  Solving for p, Initial residual = 0.0129739, Final residual = 0.000666397, No Iterations 2
time step continuity errors : sum local = 4.72824e-05, global = 3.94845e-07, cumulative = 2.25577e-05
smoothSolver:  Solving for omega, Initial residual = 3.92834e-05, Final residual = 3.11678e-06, No Iterations 1
smoothSolver:  Solving for k, Initial residual = 0.00224078, Final residual = 9.40301e-05, No Iterations 1
ExecutionTime = 28.71 s  ClockTime = 28 s

forces forcesFish write:
    Sum of forces
        Total    : (2.86812 0.00500552 -0.0740766)
        Pressure : (2.35825 0.00330198 -0.0747098)
        Viscous  : (0.509863 0.00170354 0.000633157)
    Sum of moments
        Total    : (0.00140127 0.0149444 0.0507734)
        Pressure : (0.00141973 0.015224 0.0468871)
        Viscous  : (-1.8466e-05 -0.000279607 0.00388632)
    writing force and moment files.

Time = 32

smoothSolver:  Solving for Ux, Initial residual = 0.000210783, Final residual = 1.74443e-05, No Iterations 1
smoothSolver:  Solving for Uy, Initial residual = 0.00214131, Final residual = 0.000189715, No Iterations 1
smoothSolver:  Solving for Uz, Initial residual = 0.00595155, Final residual = 0.000503164, No Iterations 1
GAMG:  Solving for p, Initial residual = 0.0119928, Final residual = 0.000620706, No Iterations 2
time step continuity errors : sum local = 4.40328e-05, global = 4.77123e-06, cumulative = 2.73289e-05
smoothSolver:  Solving for omega, Initial residual = 3.44491e-05, Final residual = 2.85359e-06, No Iterations 1
smoothSolver:  Solving for k, Initial residual = 0.00200904, Final residual = 8.58954e-05, No Iterations 1
ExecutionTime = 29.54 s  ClockTime = 29 s

forces forcesFish write:
    Sum of forces
        Total    : (2.83527 0.0150913 -0.0635951)
        Pressure : (2.32695 0.0132826 -0.0642319)
        Viscous  : (0.50832 0.00180866 0.000636834)
    Sum of moments
        Total    : (0.00131445 0.0126687 0.0507079)
        Pressure : (0.00133308 0.0129506 0.0468006)
        Viscous  : (-1.86357e-05 -0.000281849 0.00390734)
    writing force and moment files.

Time = 33

smoothSolver:  Solving for Ux, Initial residual = 0.000197839, Final residual = 1.62557e-05, No Iterations 1
smoothSolver:  Solving for Uy, Initial residual = 0.00197684, Final residual = 0.000174368, No Iterations 1
smoothSolver:  Solving for Uz, Initial residual = 0.00529728, Final residual = 0.000429707, No Iterations 1
GAMG:  Solving for p, Initial residual = 0.0110625, Final residual = 0.000556769, No Iterations 2
time step continuity errors : sum local = 3.95352e-05, global = 7.97717e-06, cumulative = 3.53061e-05
smoothSolver:  Solving for omega, Initial residual = 3.01522e-05, Final residual = 2.6154e-06, No Iterations 1
smoothSolver:  Solving for k, Initial residual = 0.00179537, Final residual = 7.83881e-05, No Iterations 1
ExecutionTime = 30.34 s  ClockTime = 30 s

forces forcesFish write:
    Sum of forces
        Total    : (2.80824 0.0245671 -0.0537917)
        Pressure : (2.30136 0.0226643 -0.0544305)
        Viscous  : (0.506879 0.00190275 0.000638807)
    Sum of moments
        Total    : (0.00121913 0.0107076 0.0507267)
        Pressure : (0.00123792 0.0109911 0.0468001)
        Viscous  : (-1.87838e-05 -0.000283469 0.00392656)
    writing force and moment files.

Time = 34

smoothSolver:  Solving for Ux, Initial residual = 0.000186236, Final residual = 1.52278e-05, No Iterations 1
smoothSolver:  Solving for Uy, Initial residual = 0.00186705, Final residual = 0.000163962, No Iterations 1
smoothSolver:  Solving for Uz, Initial residual = 0.00482114, Final residual = 0.000378225, No Iterations 1
GAMG:  Solving for p, Initial residual = 0.0102361, Final residual = 0.000475328, No Iterations 2
time step continuity errors : sum local = 3.38029e-05, global = 9.20401e-06, cumulative = 4.45101e-05
smoothSolver:  Solving for omega, Initial residual = 2.63476e-05, Final residual = 2.40147e-06, No Iterations 1
smoothSolver:  Solving for k, Initial residual = 0.00159859, Final residual = 7.14603e-05, No Iterations 1
ExecutionTime = 31.17 s  ClockTime = 31 s

forces forcesFish write:
    Sum of forces
        Total    : (2.78899 0.0309454 -0.0454434)
        Pressure : (2.28346 0.0289586 -0.0460821)
        Viscous  : (0.505532 0.00198685 0.00063861)
    Sum of moments
        Total    : (0.00112462 0.00920008 0.0505196)
        Pressure : (0.00114353 0.00948436 0.0465755)
        Viscous  : (-1.89125e-05 -0.000284276 0.00394406)
    writing force and moment files.

Time = 35

smoothSolver:  Solving for Ux, Initial residual = 0.000170638, Final residual = 1.41974e-05, No Iterations 1
smoothSolver:  Solving for Uy, Initial residual = 0.00179464, Final residual = 0.000155855, No Iterations 1
smoothSolver:  Solving for Uz, Initial residual = 0.004505, Final residual = 0.00034606, No Iterations 1
GAMG:  Solving for p, Initial residual = 0.00948553, Final residual = 0.000405233, No Iterations 2
time step continuity errors : sum local = 2.88709e-05, global = 8.17651e-06, cumulative = 5.26866e-05
smoothSolver:  Solving for omega, Initial residual = 2.29932e-05, Final residual = 2.20838e-06, No Iterations 1
smoothSolver:  Solving for k, Initial residual = 0.00141765, Final residual = 6.5071e-05, No Iterations 1
ExecutionTime = 31.97 s  ClockTime = 32 s

forces forcesFish write:
    Sum of forces
        Total    : (2.77795 0.0325266 -0.0392926)
        Pressure : (2.27367 0.0304631 -0.0399297)
        Viscous  : (0.504273 0.00206354 0.000637086)
    Sum of moments
        Total    : (0.00104126 0.00827111 0.0498308)
        Pressure : (0.00106028 0.00855574 0.0458709)
        Viscous  : (-1.90248e-05 -0.000284629 0.00395995)
    writing force and moment files.

Time = 36

smoothSolver:  Solving for Ux, Initial residual = 0.000151774, Final residual = 1.31293e-05, No Iterations 1
smoothSolver:  Solving for Uy, Initial residual = 0.00172273, Final residual = 0.000147075, No Iterations 1
smoothSolver:  Solving for Uz, Initial residual = 0.00426577, Final residual = 0.000322631, No Iterations 1
GAMG:  Solving for p, Initial residual = 0.00883915, Final residual = 0.000368073, No Iterations 2
time step continuity errors : sum local = 2.62806e-05, global = 6.55803e-06, cumulative = 5.92446e-05
smoothSolver:  Solving for omega, Initial residual = 2.00441e-05, Final residual = 4.50738e-07, No Iterations 2
smoothSolver:  Solving for k, Initial residual = 0.00125142, Final residual = 5.92303e-05, No Iterations 1
ExecutionTime = 32.82 s  ClockTime = 33 s

forces forcesFish write:
    Sum of forces
        Total    : (2.77398 0.0287395 -0.0361192)
        Pressure : (2.27089 0.0266036 -0.0367533)
        Viscous  : (0.503092 0.00213582 0.00063404)
    Sum of moments
        Total    : (0.000981131 0.00802742 0.0485682)
        Pressure : (0.00100025 0.00831189 0.0445937)
        Viscous  : (-1.91224e-05 -0.000284474 0.00397452)
    writing force and moment files.

Time = 37

smoothSolver:  Solving for Ux, Initial residual = 0.000138569, Final residual = 1.22244e-05, No Iterations 1
smoothSolver:  Solving for Uy, Initial residual = 0.00163776, Final residual = 0.000136982, No Iterations 1
smoothSolver:  Solving for Uz, Initial residual = 0.00403532, Final residual = 0.000300019, No Iterations 1
GAMG:  Solving for p, Initial residual = 0.00824218, Final residual = 0.000333268, No Iterations 2
time step continuity errors : sum local = 2.38438e-05, global = 6.00067e-06, cumulative = 6.52453e-05
smoothSolver:  Solving for omega, Initial residual = 1.71584e-05, Final residual = 4.08824e-07, No Iterations 2
smoothSolver:  Solving for k, Initial residual = 0.00110013, Final residual = 5.38974e-05, No Iterations 1
ExecutionTime = 33.71 s  ClockTime = 33 s

forces forcesFish write:
    Sum of forces
        Total    : (2.77479 0.0206168 -0.0359836)
        Pressure : (2.27281 0.0184116 -0.0366141)
        Viscous  : (0.501979 0.00220522 0.000630591)
    Sum of moments
        Total    : (0.000950134 0.00841163 0.0468713)
        Pressure : (0.000969335 0.00869585 0.0428837)
        Viscous  : (-1.92012e-05 -0.000284215 0.00398762)
    writing force and moment files.

Time = 38

smoothSolver:  Solving for Ux, Initial residual = 0.000131885, Final residual = 1.15867e-05, No Iterations 1
smoothSolver:  Solving for Uy, Initial residual = 0.0015348, Final residual = 0.000127607, No Iterations 1
smoothSolver:  Solving for Uz, Initial residual = 0.00378873, Final residual = 0.000275354, No Iterations 1
GAMG:  Solving for p, Initial residual = 0.00765224, Final residual = 0.000298148, No Iterations 2
time step continuity errors : sum local = 2.13551e-05, global = 5.84683e-06, cumulative = 7.10921e-05
smoothSolver:  Solving for omega, Initial residual = 1.46966e-05, Final residual = 3.67935e-07, No Iterations 2
smoothSolver:  Solving for k, Initial residual = 0.000963102, Final residual = 4.90137e-05, No Iterations 1
ExecutionTime = 34.55 s  ClockTime = 34 s

forces forcesFish write:
    Sum of forces
        Total    : (2.77797 0.0101855 -0.0380534)
        Pressure : (2.27704 0.00791144 -0.0386799)
        Viscous  : (0.500931 0.00227404 0.000626562)
    Sum of moments
        Total    : (0.000944777 0.00920156 0.0449939)
        Pressure : (0.000964043 0.00948527 0.0409942)
        Viscous  : (-1.92665e-05 -0.000283705 0.00399968)
    writing force and moment files.

Time = 39

smoothSolver:  Solving for Ux, Initial residual = 0.000126351, Final residual = 1.1054e-05, No Iterations 1
smoothSolver:  Solving for Uy, Initial residual = 0.00142507, Final residual = 0.000118669, No Iterations 1
smoothSolver:  Solving for Uz, Initial residual = 0.00352303, Final residual = 0.000252208, No Iterations 1
GAMG:  Solving for p, Initial residual = 0.00707008, Final residual = 0.000280254, No Iterations 2
time step continuity errors : sum local = 2.00738e-05, global = 4.93761e-06, cumulative = 7.60297e-05
smoothSolver:  Solving for omega, Initial residual = 1.25971e-05, Final residual = 3.3089e-07, No Iterations 2
smoothSolver:  Solving for k, Initial residual = 0.000839684, Final residual = 4.45525e-05, No Iterations 1
ExecutionTime = 35.4 s  ClockTime = 35 s

forces forcesFish write:
    Sum of forces
        Total    : (2.7817 -0.000697837 -0.0412549)
        Pressure : (2.28176 -0.00303956 -0.0418777)
        Viscous  : (0.499943 0.00234172 0.000622738)
    Sum of moments
        Total    : (0.000957411 0.0101552 0.0431338)
        Pressure : (0.000976736 0.0104383 0.0391233)
        Viscous  : (-1.93248e-05 -0.000283128 0.00401051)
    writing force and moment files.

Time = 40

smoothSolver:  Solving for Ux, Initial residual = 0.00012037, Final residual = 1.05444e-05, No Iterations 1
smoothSolver:  Solving for Uy, Initial residual = 0.00131775, Final residual = 0.00011056, No Iterations 1
smoothSolver:  Solving for Uz, Initial residual = 0.00325189, Final residual = 0.000233143, No Iterations 1
GAMG:  Solving for p, Initial residual = 0.00653785, Final residual = 0.000274245, No Iterations 2
time step continuity errors : sum local = 1.9629e-05, global = 3.17527e-06, cumulative = 7.9205e-05
smoothSolver:  Solving for omega, Initial residual = 1.08128e-05, Final residual = 2.97645e-07, No Iterations 2
smoothSolver:  Solving for k, Initial residual = 0.000729211, Final residual = 4.04925e-05, No Iterations 1
ExecutionTime = 36.25 s  ClockTime = 36 s

forces forcesFish write:
    Sum of forces
        Total    : (2.78487 -0.0109057 -0.0447931)
        Pressure : (2.28585 -0.0133131 -0.0454121)
        Viscous  : (0.499014 0.0024074 0.000618928)
    Sum of moments
        Total    : (0.000981241 0.0111067 0.0413785)
        Pressure : (0.00100061 0.0113891 0.0373583)
        Viscous  : (-1.93693e-05 -0.000282419 0.00402012)
    writing force and moment files.

Time = 41

smoothSolver:  Solving for Ux, Initial residual = 0.000115861, Final residual = 1.00929e-05, No Iterations 1
smoothSolver:  Solving for Uy, Initial residual = 0.00122202, Final residual = 0.000103736, No Iterations 1
smoothSolver:  Solving for Uz, Initial residual = 0.00299163, Final residual = 0.00021749, No Iterations 1
GAMG:  Solving for p, Initial residual = 0.0060509, Final residual = 0.000269475, No Iterations 2
time step continuity errors : sum local = 1.92668e-05, global = 1.1639e-06, cumulative = 8.03689e-05
smoothSolver:  Solving for omega, Initial residual = 9.30499e-06, Final residual = 2.68094e-07, No Iterations 2
smoothSolver:  Solving for k, Initial residual = 0.000630826, Final residual = 3.67974e-05, No Iterations 1
ExecutionTime = 37.09 s  ClockTime = 37 s

forces forcesFish write:
    Sum of forces
        Total    : (2.78687 -0.0197993 -0.0481631)
        Pressure : (2.28873 -0.0222687 -0.0487783)
        Viscous  : (0.498143 0.00246942 0.000615192)
    Sum of moments
        Total    : (0.00101098 0.0119541 0.0397715)
        Pressure : (0.00103038 0.0122357 0.0357432)
        Viscous  : (-1.93965e-05 -0.000281618 0.00402835)
    writing force and moment files.

Time = 42

smoothSolver:  Solving for Ux, Initial residual = 0.000111031, Final residual = 9.64501e-06, No Iterations 1
smoothSolver:  Solving for Uy, Initial residual = 0.00114466, Final residual = 9.83377e-05, No Iterations 1
smoothSolver:  Solving for Uz, Initial residual = 0.00275994, Final residual = 0.000204602, No Iterations 1
GAMG:  Solving for p, Initial residual = 0.00560163, Final residual = 0.000258219, No Iterations 2
time step continuity errors : sum local = 1.84419e-05, global = -7.22024e-07, cumulative = 7.96468e-05
smoothSolver:  Solving for omega, Initial residual = 8.03817e-06, Final residual = 2.41886e-07, No Iterations 2
smoothSolver:  Solving for k, Initial residual = 0.000544095, Final residual = 3.34557e-05, No Iterations 1
ExecutionTime = 37.94 s  ClockTime = 38 s

forces forcesFish write:
    Sum of forces
        Total    : (2.78752 -0.0271313 -0.0510698)
        Pressure : (2.29019 -0.029657 -0.0516814)
        Viscous  : (0.497332 0.00252577 0.000611611)
    Sum of moments
        Total    : (0.00104246 0.0126406 0.038326)
        Pressure : (0.00106187 0.0129213 0.034291)
        Viscous  : (-1.94115e-05 -0.000280689 0.00403504)
    writing force and moment files.

Time = 43

smoothSolver:  Solving for Ux, Initial residual = 0.000105001, Final residual = 9.17327e-06, No Iterations 1
smoothSolver:  Solving for Uy, Initial residual = 0.0010888, Final residual = 9.39895e-05, No Iterations 1
smoothSolver:  Solving for Uz, Initial residual = 0.00259018, Final residual = 0.000194618, No Iterations 1
GAMG:  Solving for p, Initial residual = 0.00520261, Final residual = 0.000244402, No Iterations 2
time step continuity errors : sum local = 1.74395e-05, global = -1.92944e-06, cumulative = 7.77174e-05
smoothSolver:  Solving for omega, Initial residual = 6.97953e-06, Final residual = 2.18845e-07, No Iterations 2
smoothSolver:  Solving for k, Initial residual = 0.000468265, Final residual = 3.04424e-05, No Iterations 1
ExecutionTime = 38.74 s  ClockTime = 38 s

forces forcesFish write:
    Sum of forces
        Total    : (2.78695 -0.0328273 -0.053315)
        Pressure : (2.29037 -0.0354019 -0.053923)
        Viscous  : (0.496579 0.00257459 0.000607996)
    Sum of moments
        Total    : (0.00107181 0.0131306 0.0370579)
        Pressure : (0.00109123 0.0134103 0.0330179)
        Viscous  : (-1.94133e-05 -0.000279686 0.00404)
    writing force and moment files.

Time = 44

smoothSolver:  Solving for Ux, Initial residual = 9.76729e-05, Final residual = 8.67344e-06, No Iterations 1
smoothSolver:  Solving for Uy, Initial residual = 0.00104452, Final residual = 9.04758e-05, No Iterations 1
smoothSolver:  Solving for Uz, Initial residual = 0.00245762, Final residual = 0.000185724, No Iterations 1
GAMG:  Solving for p, Initial residual = 0.00484737, Final residual = 0.000224637, No Iterations 2
time step continuity errors : sum local = 1.60173e-05, global = -2.52917e-06, cumulative = 7.51882e-05
smoothSolver:  Solving for omega, Initial residual = 6.10073e-06, Final residual = 1.98561e-07, No Iterations 2
smoothSolver:  Solving for k, Initial residual = 0.000402447, Final residual = 2.77294e-05, No Iterations 1
ExecutionTime = 39.56 s  ClockTime = 39 s

forces forcesFish write:
    Sum of forces
        Total    : (2.78548 -0.0370443 -0.0548075)
        Pressure : (2.28959 -0.0396587 -0.055412)
        Viscous  : (0.495883 0.00261444 0.000604451)
    Sum of moments
        Total    : (0.00109597 0.013414 0.0359612)
        Pressure : (0.00111537 0.0136925 0.031918)
        Viscous  : (-1.94013e-05 -0.000278573 0.00404317)
    writing force and moment files.

Time = 45

smoothSolver:  Solving for Ux, Initial residual = 8.90813e-05, Final residual = 8.14399e-06, No Iterations 1
smoothSolver:  Solving for Uy, Initial residual = 0.00100314, Final residual = 8.72825e-05, No Iterations 1
smoothSolver:  Solving for Uz, Initial residual = 0.002326, Final residual = 0.000176424, No Iterations 1
GAMG:  Solving for p, Initial residual = 0.00452157, Final residual = 0.000201749, No Iterations 2
time step continuity errors : sum local = 1.43761e-05, global = -2.71624e-06, cumulative = 7.2472e-05
smoothSolver:  Solving for omega, Initial residual = 5.37301e-06, Final residual = 1.80887e-07, No Iterations 2
smoothSolver:  Solving for k, Initial residual = 0.00034565, Final residual = 2.52875e-05, No Iterations 1
ExecutionTime = 40.4 s  ClockTime = 40 s

forces forcesFish write:
    Sum of forces
        Total    : (2.78348 -0.0400137 -0.0555303)
        Pressure : (2.28823 -0.0426584 -0.0561311)
        Viscous  : (0.495243 0.00264472 0.000600807)
    Sum of moments
        Total    : (0.00111257 0.0134999 0.0350307)
        Pressure : (0.00113194 0.0137773 0.0309862)
        Viscous  : (-1.93735e-05 -0.000277403 0.00404452)
    writing force and moment files.

Time = 46

smoothSolver:  Solving for Ux, Initial residual = 7.99922e-05, Final residual = 7.60578e-06, No Iterations 1
smoothSolver:  Solving for Uy, Initial residual = 0.000958956, Final residual = 8.42083e-05, No Iterations 1
smoothSolver:  Solving for Uz, Initial residual = 0.00219205, Final residual = 0.000166412, No Iterations 1
GAMG:  Solving for p, Initial residual = 0.00422045, Final residual = 0.00017635, No Iterations 2
time step continuity errors : sum local = 1.25583e-05, global = -2.75663e-06, cumulative = 6.97154e-05
smoothSolver:  Solving for omega, Initial residual = 4.77082e-06, Final residual = 1.65631e-07, No Iterations 2
smoothSolver:  Solving for k, Initial residual = 0.000296914, Final residual = 2.30876e-05, No Iterations 1
ExecutionTime = 41.22 s  ClockTime = 41 s

forces forcesFish write:
    Sum of forces
        Total    : (2.78128 -0.042072 -0.0555727)
        Pressure : (2.28662 -0.0447373 -0.0561695)
        Viscous  : (0.494658 0.00266536 0.000596825)
    Sum of moments
        Total    : (0.0011207 0.0134236 0.0342442)
        Pressure : (0.00114004 0.0136997 0.0302001)
        Viscous  : (-1.93331e-05 -0.000276115 0.00404409)
    writing force and moment files.

Time = 47

smoothSolver:  Solving for Ux, Initial residual = 7.41319e-05, Final residual = 7.15084e-06, No Iterations 1
smoothSolver:  Solving for Uy, Initial residual = 0.000914804, Final residual = 8.12981e-05, No Iterations 1
smoothSolver:  Solving for Uz, Initial residual = 0.00205322, Final residual = 0.000156185, No Iterations 1
GAMG:  Solving for p, Initial residual = 0.00393711, Final residual = 0.000151859, No Iterations 2
time step continuity errors : sum local = 1.08067e-05, global = -2.67797e-06, cumulative = 6.70374e-05
smoothSolver:  Solving for omega, Initial residual = 4.2729e-06, Final residual = 1.52582e-07, No Iterations 2
smoothSolver:  Solving for k, Initial residual = 0.00025531, Final residual = 2.11017e-05, No Iterations 1
ExecutionTime = 42.05 s  ClockTime = 42 s

forces forcesFish write:
    Sum of forces
        Total    : (2.77911 -0.04368 -0.0551223)
        Pressure : (2.28499 -0.0463569 -0.055715)
        Viscous  : (0.494122 0.00267687 0.000592651)
    Sum of moments
        Total    : (0.0011211 0.0132399 0.0335448)
        Pressure : (0.00114039 0.0135146 0.0295027)
        Viscous  : (-1.92844e-05 -0.000274749 0.00404209)
    writing force and moment files.

Time = 48

smoothSolver:  Solving for Ux, Initial residual = 7.18928e-05, Final residual = 6.82465e-06, No Iterations 1
smoothSolver:  Solving for Uy, Initial residual = 0.000873386, Final residual = 7.84981e-05, No Iterations 1
smoothSolver:  Solving for Uz, Initial residual = 0.00191673, Final residual = 0.000146355, No Iterations 1
GAMG:  Solving for p, Initial residual = 0.00367333, Final residual = 0.000133557, No Iterations 2
time step continuity errors : sum local = 9.49655e-06, global = -2.44219e-06, cumulative = 6.45952e-05
smoothSolver:  Solving for omega, Initial residual = 3.85944e-06, Final residual = 1.41337e-07, No Iterations 2
smoothSolver:  Solving for k, Initial residual = 0.000219952, Final residual = 1.93057e-05, No Iterations 1
ExecutionTime = 42.88 s  ClockTime = 43 s

forces forcesFish write:
    Sum of forces
        Total    : (2.77713 -0.0453127 -0.0543875)
        Pressure : (2.2835 -0.0479929 -0.0549757)
        Viscous  : (0.493635 0.00268017 0.000588293)
    Sum of moments
        Total    : (0.0011154 0.0130031 0.032856)
        Pressure : (0.00113463 0.0132763 0.0288173)
        Viscous  : (-1.92302e-05 -0.000273288 0.00403867)
    writing force and moment files.

Time = 49

smoothSolver:  Solving for Ux, Initial residual = 7.03163e-05, Final residual = 6.54385e-06, No Iterations 1
smoothSolver:  Solving for Uy, Initial residual = 0.000836483, Final residual = 7.58584e-05, No Iterations 1
smoothSolver:  Solving for Uz, Initial residual = 0.00178564, Final residual = 0.000137432, No Iterations 1
GAMG:  Solving for p, Initial residual = 0.0034237, Final residual = 0.000123928, No Iterations 2
time step continuity errors : sum local = 8.80309e-06, global = -2.21638e-06, cumulative = 6.23788e-05
smoothSolver:  Solving for omega, Initial residual = 3.51493e-06, Final residual = 1.31668e-07, No Iterations 2
smoothSolver:  Solving for k, Initial residual = 0.000190032, Final residual = 1.76811e-05, No Iterations 1
ExecutionTime = 43.68 s  ClockTime = 43 s

forces forcesFish write:
    Sum of forces
        Total    : (2.77539 -0.0472941 -0.0535477)
        Pressure : (2.28219 -0.0499706 -0.0541315)
        Viscous  : (0.493193 0.00267659 0.000583752)
    Sum of moments
        Total    : (0.00110551 0.0127584 0.0321189)
        Pressure : (0.00112468 0.0130301 0.0280848)
        Viscous  : (-1.91719e-05 -0.000271731 0.00403409)
    writing force and moment files.

Time = 50

smoothSolver:  Solving for Ux, Initial residual = 6.78603e-05, Final residual = 6.25459e-06, No Iterations 1
smoothSolver:  Solving for Uy, Initial residual = 0.000803637, Final residual = 7.32874e-05, No Iterations 1
smoothSolver:  Solving for Uz, Initial residual = 0.00167312, Final residual = 0.000129751, No Iterations 1
GAMG:  Solving for p, Initial residual = 0.00320046, Final residual = 0.00011796, No Iterations 2
time step continuity errors : sum local = 8.36954e-06, global = -2.04252e-06, cumulative = 6.03363e-05
smoothSolver:  Solving for omega, Initial residual = 3.22815e-06, Final residual = 1.23401e-07, No Iterations 2
smoothSolver:  Solving for k, Initial residual = 0.000164773, Final residual = 1.62088e-05, No Iterations 1
ExecutionTime = 44.49 s  ClockTime = 44 s

forces forcesFish write:
    Sum of forces
        Total    : (2.77382 -0.0496956 -0.0527567)
        Pressure : (2.28103 -0.052363 -0.053336)
        Viscous  : (0.492792 0.00266738 0.000579306)
    Sum of moments
        Total    : (0.00109362 0.0125436 0.0313233)
        Pressure : (0.00111273 0.0128138 0.0272948)
        Viscous  : (-1.91089e-05 -0.000270206 0.00402853)
    writing force and moment files.

Time = 51

smoothSolver:  Solving for Ux, Initial residual = 6.38662e-05, Final residual = 5.9366e-06, No Iterations 1
smoothSolver:  Solving for Uy, Initial residual = 0.000772619, Final residual = 7.06869e-05, No Iterations 1
smoothSolver:  Solving for Uz, Initial residual = 0.00159009, Final residual = 0.00012373, No Iterations 1
GAMG:  Solving for p, Initial residual = 0.00299871, Final residual = 0.000116109, No Iterations 2
time step continuity errors : sum local = 8.229e-06, global = -1.63516e-06, cumulative = 5.87012e-05
smoothSolver:  Solving for omega, Initial residual = 2.98756e-06, Final residual = 1.1631e-07, No Iterations 2
smoothSolver:  Solving for k, Initial residual = 0.00014347, Final residual = 3.28449e-06, No Iterations 2
ExecutionTime = 45.29 s  ClockTime = 45 s

forces forcesFish write:
    Sum of forces
        Total    : (2.77225 -0.0524343 -0.0521225)
        Pressure : (2.27991 -0.0550869 -0.0526974)
        Viscous  : (0.492341 0.00265253 0.000574842)
    Sum of moments
        Total    : (0.00108175 0.0123825 0.0304835)
        Pressure : (0.00110078 0.0126512 0.0264628)
        Viscous  : (-1.90374e-05 -0.000268659 0.00402074)
    writing force and moment files.

Time = 52

smoothSolver:  Solving for Ux, Initial residual = 5.95933e-05, Final residual = 5.6132e-06, No Iterations 1
smoothSolver:  Solving for Uy, Initial residual = 0.000740768, Final residual = 6.80374e-05, No Iterations 1
smoothSolver:  Solving for Uz, Initial residual = 0.00151211, Final residual = 0.00011834, No Iterations 1
GAMG:  Solving for p, Initial residual = 0.0028097, Final residual = 0.000115166, No Iterations 2
time step continuity errors : sum local = 8.15418e-06, global = -9.89654e-07, cumulative = 5.77115e-05
smoothSolver:  Solving for omega, Initial residual = 2.88485e-06, Final residual = 1.12544e-07, No Iterations 2
smoothSolver:  Solving for k, Initial residual = 0.000124762, Final residual = 3.00346e-06, No Iterations 2
ExecutionTime = 46.1 s  ClockTime = 46 s

forces forcesFish write:
    Sum of forces
        Total    : (2.77065 -0.055325 -0.0516937)
        Pressure : (2.27872 -0.0579594 -0.0522642)
        Viscous  : (0.491928 0.00263443 0.000570525)
    Sum of moments
        Total    : (0.00107136 0.0122827 0.0296339)
        Pressure : (0.00109032 0.0125499 0.0256214)
        Viscous  : (-1.89661e-05 -0.000267151 0.00401254)
    writing force and moment files.

Time = 53

smoothSolver:  Solving for Ux, Initial residual = 5.5743e-05, Final residual = 5.31441e-06, No Iterations 1
smoothSolver:  Solving for Uy, Initial residual = 0.000708164, Final residual = 6.54503e-05, No Iterations 1
smoothSolver:  Solving for Uz, Initial residual = 0.00143157, Final residual = 0.000113386, No Iterations 1
GAMG:  Solving for p, Initial residual = 0.00263483, Final residual = 0.000113757, No Iterations 2
time step continuity errors : sum local = 8.04798e-06, global = -3.22201e-07, cumulative = 5.73893e-05
smoothSolver:  Solving for omega, Initial residual = 2.75496e-06, Final residual = 1.08685e-07, No Iterations 2
smoothSolver:  Solving for k, Initial residual = 0.00010891, Final residual = 2.72951e-06, No Iterations 2
ExecutionTime = 46.98 s  ClockTime = 47 s

forces forcesFish write:
    Sum of forces
        Total    : (2.76899 -0.058216 -0.0514561)
        Pressure : (2.27743 -0.0608299 -0.0520224)
        Viscous  : (0.491556 0.00261385 0.000566252)
    Sum of moments
        Total    : (0.00106311 0.0122361 0.0287941)
        Pressure : (0.00108201 0.0125017 0.02479)
        Viscous  : (-1.88969e-05 -0.000265651 0.00400411)
    writing force and moment files.

Time = 54

smoothSolver:  Solving for Ux, Initial residual = 5.26153e-05, Final residual = 5.04947e-06, No Iterations 1
smoothSolver:  Solving for Uy, Initial residual = 0.000676104, Final residual = 6.30481e-05, No Iterations 1
smoothSolver:  Solving for Uz, Initial residual = 0.00135676, Final residual = 0.000108939, No Iterations 1
GAMG:  Solving for p, Initial residual = 0.00247095, Final residual = 0.000107792, No Iterations 2
time step continuity errors : sum local = 7.62131e-06, global = 3.91834e-07, cumulative = 5.77811e-05
smoothSolver:  Solving for omega, Initial residual = 2.61812e-06, Final residual = 1.04682e-07, No Iterations 2
smoothSolver:  Solving for k, Initial residual = 9.54242e-05, Final residual = 2.47524e-06, No Iterations 2
ExecutionTime = 47.83 s  ClockTime = 48 s

forces forcesFish write:
    Sum of forces
        Total    : (2.76725 -0.0610609 -0.0513563)
        Pressure : (2.27603 -0.0636521 -0.0519185)
        Viscous  : (0.491222 0.0025912 0.000562243)
    Sum of moments
        Total    : (0.00105697 0.0122257 0.0279568)
        Pressure : (0.0010758 0.01249 0.0239612)
        Viscous  : (-1.8832e-05 -0.000264235 0.00399551)
    writing force and moment files.

Time = 55

smoothSolver:  Solving for Ux, Initial residual = 5.06604e-05, Final residual = 4.83247e-06, No Iterations 1
smoothSolver:  Solving for Uy, Initial residual = 0.000646522, Final residual = 6.08396e-05, No Iterations 1
smoothSolver:  Solving for Uz, Initial residual = 0.00128736, Final residual = 0.00010511, No Iterations 1
GAMG:  Solving for p, Initial residual = 0.00231414, Final residual = 9.98355e-05, No Iterations 2
time step continuity errors : sum local = 7.0553e-06, global = 1.00027e-06, cumulative = 5.87814e-05
smoothSolver:  Solving for omega, Initial residual = 2.48091e-06, Final residual = 1.00552e-07, No Iterations 2
smoothSolver:  Solving for k, Initial residual = 8.39104e-05, Final residual = 2.24194e-06, No Iterations 2
ExecutionTime = 48.65 s  ClockTime = 48 s

forces forcesFish write:
    Sum of forces
        Total    : (2.76545 -0.0638004 -0.0513452)
        Pressure : (2.27452 -0.0663672 -0.0519035)
        Viscous  : (0.490926 0.0025668 0.000558304)
    Sum of moments
        Total    : (0.00105275 0.0122372 0.0271241)
        Pressure : (0.00107152 0.0125 0.0231373)
        Viscous  : (-1.87725e-05 -0.000262828 0.00398682)
    writing force and moment files.

Time = 56

smoothSolver:  Solving for Ux, Initial residual = 4.98131e-05, Final residual = 4.65936e-06, No Iterations 1
smoothSolver:  Solving for Uy, Initial residual = 0.000620252, Final residual = 5.88072e-05, No Iterations 1
smoothSolver:  Solving for Uz, Initial residual = 0.00122552, Final residual = 0.000101808, No Iterations 1
GAMG:  Solving for p, Initial residual = 0.00217031, Final residual = 8.86605e-05, No Iterations 2
time step continuity errors : sum local = 6.26317e-06, global = 1.36565e-06, cumulative = 6.0147e-05
smoothSolver:  Solving for omega, Initial residual = 2.34758e-06, Final residual = 9.63041e-08, No Iterations 2
smoothSolver:  Solving for k, Initial residual = 7.40309e-05, Final residual = 2.02821e-06, No Iterations 2
ExecutionTime = 49.51 s  ClockTime = 49 s

forces forcesFish write:
    Sum of forces
        Total    : (2.7636 -0.06646 -0.0513758)
        Pressure : (2.27294 -0.0690006 -0.0519306)
        Viscous  : (0.490667 0.00254062 0.000554803)
    Sum of moments
        Total    : (0.00105006 0.0122574 0.0262815)
        Pressure : (0.00106878 0.012519 0.0223035)
        Viscous  : (-1.87184e-05 -0.000261569 0.00397798)
    writing force and moment files.

Time = 57

smoothSolver:  Solving for Ux, Initial residual = 4.88626e-05, Final residual = 4.48955e-06, No Iterations 1
smoothSolver:  Solving for Uy, Initial residual = 0.000597256, Final residual = 5.69859e-05, No Iterations 1
smoothSolver:  Solving for Uz, Initial residual = 0.00117103, Final residual = 9.88265e-05, No Iterations 1
GAMG:  Solving for p, Initial residual = 0.00203378, Final residual = 7.55222e-05, No Iterations 2
time step continuity errors : sum local = 5.33385e-06, global = 1.54284e-06, cumulative = 6.16899e-05
smoothSolver:  Solving for omega, Initial residual = 2.21937e-06, Final residual = 9.19678e-08, No Iterations 2
smoothSolver:  Solving for k, Initial residual = 6.5547e-05, Final residual = 1.83296e-06, No Iterations 2
ExecutionTime = 50.32 s  ClockTime = 50 s

forces forcesFish write:
    Sum of forces
        Total    : (2.76175 -0.0691091 -0.0514126)
        Pressure : (2.27131 -0.0716219 -0.051964)
        Viscous  : (0.490441 0.00251281 0.000551387)
    Sum of moments
        Total    : (0.00104848 0.0122766 0.0254077)
        Pressure : (0.00106715 0.012537 0.0214386)
        Viscous  : (-1.867e-05 -0.000260311 0.00396908)
    writing force and moment files.

Time = 58

smoothSolver:  Solving for Ux, Initial residual = 4.70947e-05, Final residual = 4.30054e-06, No Iterations 1
smoothSolver:  Solving for Uy, Initial residual = 0.000577633, Final residual = 5.53417e-05, No Iterations 1
smoothSolver:  Solving for Uz, Initial residual = 0.00113027, Final residual = 9.63569e-05, No Iterations 1
GAMG:  Solving for p, Initial residual = 0.0019079, Final residual = 7.13401e-05, No Iterations 2
time step continuity errors : sum local = 5.03843e-06, global = 1.40993e-06, cumulative = 6.30998e-05
smoothSolver:  Solving for omega, Initial residual = 2.09646e-06, Final residual = 8.7587e-08, No Iterations 2
smoothSolver:  Solving for k, Initial residual = 5.821e-05, Final residual = 1.65483e-06, No Iterations 2
ExecutionTime = 51.16 s  ClockTime = 51 s

forces forcesFish write:
    Sum of forces
        Total    : (2.75995 -0.0718358 -0.0514329)
        Pressure : (2.2697 -0.074319 -0.0519813)
        Viscous  : (0.490247 0.00248327 0.00054844)
    Sum of moments
        Total    : (0.00104761 0.0122884 0.024481)
        Pressure : (0.00106624 0.0125476 0.0205209)
        Viscous  : (-1.86278e-05 -0.000259216 0.00396005)
    writing force and moment files.

Time = 59

smoothSolver:  Solving for Ux, Initial residual = 4.41536e-05, Final residual = 4.07911e-06, No Iterations 1
smoothSolver:  Solving for Uy, Initial residual = 0.000561102, Final residual = 5.38435e-05, No Iterations 1
smoothSolver:  Solving for Uz, Initial residual = 0.00109852, Final residual = 9.41269e-05, No Iterations 1
GAMG:  Solving for p, Initial residual = 0.00179598, Final residual = 7.13089e-05, No Iterations 2
time step continuity errors : sum local = 5.03786e-06, global = 1.12268e-06, cumulative = 6.42225e-05
smoothSolver:  Solving for omega, Initial residual = 1.97809e-06, Final residual = 8.32148e-08, No Iterations 2
smoothSolver:  Solving for k, Initial residual = 5.17904e-05, Final residual = 1.49258e-06, No Iterations 2
ExecutionTime = 51.98 s  ClockTime = 52 s

forces forcesFish write:
    Sum of forces
        Total    : (2.75825 -0.0745266 -0.0514365)
        Pressure : (2.26816 -0.0769786 -0.0519821)
        Viscous  : (0.490083 0.00245207 0.000545595)
    Sum of moments
        Total    : (0.00104722 0.0122915 0.0235433)
        Pressure : (0.00106581 0.0125497 0.0195924)
        Viscous  : (-1.85934e-05 -0.000258134 0.0039509)
    writing force and moment files.

Time = 60

smoothSolver:  Solving for Ux, Initial residual = 4.06095e-05, Final residual = 3.83856e-06, No Iterations 1
smoothSolver:  Solving for Uy, Initial residual = 0.000545537, Final residual = 5.23711e-05, No Iterations 1
smoothSolver:  Solving for Uz, Initial residual = 0.00106142, Final residual = 9.15536e-05, No Iterations 1
GAMG:  Solving for p, Initial residual = 0.00169117, Final residual = 6.7038e-05, No Iterations 2
time step continuity errors : sum local = 4.7392e-06, global = 1.00292e-06, cumulative = 6.52254e-05
smoothSolver:  Solving for omega, Initial residual = 1.86331e-06, Final residual = 7.88012e-08, No Iterations 2
smoothSolver:  Solving for k, Initial residual = 4.61346e-05, Final residual = 1.34486e-06, No Iterations 2
ExecutionTime = 52.81 s  ClockTime = 53 s

forces forcesFish write:
    Sum of forces
        Total    : (2.7567 -0.0768866 -0.0514322)
        Pressure : (2.26675 -0.0793059 -0.0519753)
        Viscous  : (0.489947 0.00241922 0.000543172)
    Sum of moments
        Total    : (0.00104706 0.012288 0.0226925)
        Pressure : (0.00106563 0.0125452 0.0187509)
        Viscous  : (-1.8566e-05 -0.000257193 0.00394159)
    writing force and moment files.

Time = 61

smoothSolver:  Solving for Ux, Initial residual = 3.76555e-05, Final residual = 3.62118e-06, No Iterations 1
smoothSolver:  Solving for Uy, Initial residual = 0.000527429, Final residual = 5.06857e-05, No Iterations 1
smoothSolver:  Solving for Uz, Initial residual = 0.00101406, Final residual = 8.82758e-05, No Iterations 1
GAMG:  Solving for p, Initial residual = 0.00158723, Final residual = 6.09837e-05, No Iterations 2
time step continuity errors : sum local = 4.31404e-06, global = 9.30687e-07, cumulative = 6.61561e-05
smoothSolver:  Solving for omega, Initial residual = 1.7527e-06, Final residual = 7.43674e-08, No Iterations 2
smoothSolver:  Solving for k, Initial residual = 4.11384e-05, Final residual = 1.21045e-06, No Iterations 2
ExecutionTime = 53.66 s  ClockTime = 53 s

forces forcesFish write:
    Sum of forces
        Total    : (2.75529 -0.0787739 -0.0514211)
        Pressure : (2.26545 -0.0811589 -0.051962)
        Viscous  : (0.489836 0.002385 0.000540839)
    Sum of moments
        Total    : (0.0010468 0.0122794 0.0219783)
        Pressure : (0.00106535 0.0125357 0.0180461)
        Viscous  : (-1.85454e-05 -0.000256263 0.00393217)
    writing force and moment files.

Time = 62

smoothSolver:  Solving for Ux, Initial residual = 3.51894e-05, Final residual = 3.43013e-06, No Iterations 1
smoothSolver:  Solving for Uy, Initial residual = 0.000506509, Final residual = 4.87465e-05, No Iterations 1
smoothSolver:  Solving for Uz, Initial residual = 0.000959818, Final residual = 8.44108e-05, No Iterations 1
GAMG:  Solving for p, Initial residual = 0.00148971, Final residual = 5.79782e-05, No Iterations 2
time step continuity errors : sum local = 4.10307e-06, global = 7.0156e-07, cumulative = 6.68577e-05
smoothSolver:  Solving for omega, Initial residual = 1.64634e-06, Final residual = 6.99831e-08, No Iterations 2
smoothSolver:  Solving for k, Initial residual = 3.66956e-05, Final residual = 1.0884e-06, No Iterations 2
ExecutionTime = 54.5 s  ClockTime = 54 s

forces forcesFish write:
    Sum of forces
        Total    : (2.75399 -0.0802733 -0.0514001)
        Pressure : (2.26424 -0.082623 -0.051939)
        Viscous  : (0.489748 0.00234963 0.000538968)
    Sum of moments
        Total    : (0.00104618 0.0122664 0.0213781)
        Pressure : (0.00106471 0.0125219 0.0174555)
        Viscous  : (-1.85307e-05 -0.000255495 0.00392266)
    writing force and moment files.

Time = 63

smoothSolver:  Solving for Ux, Initial residual = 3.32663e-05, Final residual = 3.2618e-06, No Iterations 1
smoothSolver:  Solving for Uy, Initial residual = 0.000485341, Final residual = 4.66689e-05, No Iterations 1
smoothSolver:  Solving for Uz, Initial residual = 0.000905525, Final residual = 8.02992e-05, No Iterations 1
GAMG:  Solving for p, Initial residual = 0.00139842, Final residual = 5.64524e-05, No Iterations 2
time step continuity errors : sum local = 3.99567e-06, global = 3.43226e-07, cumulative = 6.72009e-05
smoothSolver:  Solving for omega, Initial residual = 1.54426e-06, Final residual = 6.56926e-08, No Iterations 2
smoothSolver:  Solving for k, Initial residual = 3.2722e-05, Final residual = 9.77669e-07, No Iterations 2
ExecutionTime = 55.34 s  ClockTime = 55 s

forces forcesFish write:
    Sum of forces
        Total    : (2.75275 -0.0815721 -0.0513651)
        Pressure : (2.26307 -0.0838855 -0.0519023)
        Viscous  : (0.489682 0.00231332 0.000537209)
    Sum of moments
        Total    : (0.00104504 0.0122484 0.0208351)
        Pressure : (0.00106357 0.0125031 0.016922)
        Viscous  : (-1.85217e-05 -0.000254751 0.00391307)
    writing force and moment files.

Time = 64

smoothSolver:  Solving for Ux, Initial residual = 3.21997e-05, Final residual = 3.12344e-06, No Iterations 1
smoothSolver:  Solving for Uy, Initial residual = 0.000465443, Final residual = 4.46242e-05, No Iterations 1
smoothSolver:  Solving for Uz, Initial residual = 0.000855019, Final residual = 7.63586e-05, No Iterations 1
GAMG:  Solving for p, Initial residual = 0.00131263, Final residual = 5.32609e-05, No Iterations 2
time step continuity errors : sum local = 3.76974e-06, global = -4.69467e-08, cumulative = 6.71539e-05
smoothSolver:  Solving for omega, Initial residual = 1.44684e-06, Final residual = 6.15342e-08, No Iterations 2
smoothSolver:  Solving for k, Initial residual = 2.91605e-05, Final residual = 8.77341e-07, No Iterations 2
ExecutionTime = 56.19 s  ClockTime = 56 s

forces forcesFish write:
    Sum of forces
        Total    : (2.75155 -0.0828099 -0.0513133)
        Pressure : (2.26192 -0.0850863 -0.0518493)
        Viscous  : (0.489634 0.00227632 0.000535973)
    Sum of moments
        Total    : (0.00104335 0.0122246 0.0203043)
        Pressure : (0.00106187 0.0124788 0.0164009)
        Viscous  : (-1.85176e-05 -0.000254196 0.00390341)
    writing force and moment files.

Time = 65

smoothSolver:  Solving for Ux, Initial residual = 3.1417e-05, Final residual = 2.99924e-06, No Iterations 1
smoothSolver:  Solving for Uy, Initial residual = 0.000447339, Final residual = 4.27179e-05, No Iterations 1
[...]

forces forcesFish write:
    Sum of forces
        Total    : (2.74527 -0.05958 -0.0536366)
        Pressure : (2.25134 -0.0607263 -0.0541974)
        Viscous  : (0.493939 0.00114627 0.000560771)
    Sum of moments
        Total    : (0.001074 0.0127302 0.0190652)
        Pressure : (0.00109346 0.0129921 0.0155095)
        Viscous  : (-1.94587e-05 -0.000261864 0.00355572)
    writing force and moment files.

Time = 152

smoothSolver:  Solving for Ux, Initial residual = 1.42297e-06, Final residual = 7.43853e-08, No Iterations 1
smoothSolver:  Solving for Uy, Initial residual = 1.13942e-05, Final residual = 8.27524e-07, No Iterations 1
smoothSolver:  Solving for Uz, Initial residual = 2.78325e-05, Final residual = 2.01381e-06, No Iterations 1
GAMG:  Solving for p, Initial residual = 4.6231e-05, Final residual = 4.56808e-06, No Iterations 1
time step continuity errors : sum local = 3.22508e-07, global = -8.38626e-08, cumulative = 6.37505e-05
smoothSolver:  Solving for omega, Initial residual = 2.17843e-08, Final residual = 2.50508e-09, No Iterations 1
smoothSolver:  Solving for k, Initial residual = 4.60297e-07, Final residual = 1.646e-08, No Iterations 1
ExecutionTime = 129.87 s  ClockTime = 130 s

forces forcesFish write:
    Sum of forces
        Total    : (2.74527 -0.0594878 -0.0536397)
        Pressure : (2.25133 -0.060635 -0.0542004)
        Viscous  : (0.493945 0.00114721 0.000560698)
    Sum of moments
        Total    : (0.00107392 0.0127314 0.019102)
        Pressure : (0.00109338 0.0129932 0.0155461)
        Viscous  : (-1.94595e-05 -0.000261845 0.00355597)
    writing force and moment files.

Time = 153

smoothSolver:  Solving for Ux, Initial residual = 1.32411e-06, Final residual = 6.97778e-08, No Iterations 1
smoothSolver:  Solving for Uy, Initial residual = 1.06472e-05, Final residual = 7.75539e-07, No Iterations 1
smoothSolver:  Solving for Uz, Initial residual = 2.60532e-05, Final residual = 1.8821e-06, No Iterations 1
GAMG:  Solving for p, Initial residual = 4.44711e-05, Final residual = 1.87486e-06, No Iterations 2
time step continuity errors : sum local = 1.32366e-07, global = -7.1139e-08, cumulative = 6.36794e-05
smoothSolver:  Solving for omega, Initial residual = 2.08191e-08, Final residual = 2.41568e-09, No Iterations 1
smoothSolver:  Solving for k, Initial residual = 4.37837e-07, Final residual = 1.55939e-08, No Iterations 1
ExecutionTime = 130.7 s  ClockTime = 130 s

forces forcesFish write:
    Sum of forces
        Total    : (2.74522 -0.0593608 -0.0536415)
        Pressure : (2.25127 -0.0605089 -0.0542023)
        Viscous  : (0.493951 0.00114808 0.00056074)
    Sum of moments
        Total    : (0.00107379 0.0127322 0.0191529)
        Pressure : (0.00109325 0.0129941 0.0155967)
        Viscous  : (-1.94596e-05 -0.000261873 0.00355621)
    writing force and moment files.

Time = 154

smoothSolver:  Solving for Ux, Initial residual = 1.18996e-06, Final residual = 6.32295e-08, No Iterations 1
smoothSolver:  Solving for Uy, Initial residual = 9.90748e-06, Final residual = 7.45503e-07, No Iterations 1
smoothSolver:  Solving for Uz, Initial residual = 2.43404e-05, Final residual = 1.81762e-06, No Iterations 1
GAMG:  Solving for p, Initial residual = 4.24492e-05, Final residual = 4.10424e-06, No Iterations 1
time step continuity errors : sum local = 2.89757e-07, global = -7.76531e-08, cumulative = 6.36018e-05
smoothSolver:  Solving for omega, Initial residual = 1.97658e-08, Final residual = 2.27006e-09, No Iterations 1
smoothSolver:  Solving for k, Initial residual = 4.12713e-07, Final residual = 1.50646e-08, No Iterations 1
ExecutionTime = 131.49 s  ClockTime = 131 s

forces forcesFish write:
    Sum of forces
        Total    : (2.74521 -0.0592843 -0.0536416)
        Pressure : (2.25125 -0.0604333 -0.0542023)
        Viscous  : (0.493957 0.00114898 0.000560659)
    Sum of moments
        Total    : (0.00107371 0.0127323 0.0191834)
        Pressure : (0.00109317 0.0129941 0.0156269)
        Viscous  : (-1.94599e-05 -0.00026185 0.00355646)
    writing force and moment files.

Time = 155

smoothSolver:  Solving for Ux, Initial residual = 1.10116e-06, Final residual = 6.04734e-08, No Iterations 1
smoothSolver:  Solving for Uy, Initial residual = 9.21506e-06, Final residual = 6.94977e-07, No Iterations 1
smoothSolver:  Solving for Uz, Initial residual = 2.26623e-05, Final residual = 1.69011e-06, No Iterations 1
GAMG:  Solving for p, Initial residual = 4.07262e-05, Final residual = 4.02614e-06, No Iterations 1
time step continuity errors : sum local = 2.84243e-07, global = -7.34862e-08, cumulative = 6.35283e-05
smoothSolver:  Solving for omega, Initial residual = 1.86702e-08, Final residual = 2.18031e-09, No Iterations 1
smoothSolver:  Solving for k, Initial residual = 3.89441e-07, Final residual = 1.4349e-08, No Iterations 1
ExecutionTime = 132.27 s  ClockTime = 132 s

forces forcesFish write:
    Sum of forces
        Total    : (2.7452 -0.0592113 -0.0536407)
        Pressure : (2.25124 -0.0603611 -0.0542013)
        Viscous  : (0.493962 0.0011498 0.000560615)
    Sum of moments
        Total    : (0.00107363 0.012732 0.0192125)
        Pressure : (0.00109308 0.0129939 0.0156558)
        Viscous  : (-1.94597e-05 -0.000261842 0.00355669)
    writing force and moment files.

Time = 156

smoothSolver:  Solving for Ux, Initial residual = 1.01453e-06, Final residual = 5.63392e-08, No Iterations 1
smoothSolver:  Solving for Uy, Initial residual = 8.59634e-06, Final residual = 6.46448e-07, No Iterations 1
smoothSolver:  Solving for Uz, Initial residual = 2.11614e-05, Final residual = 1.56891e-06, No Iterations 1
GAMG:  Solving for p, Initial residual = 3.90012e-05, Final residual = 1.65703e-06, No Iterations 2
time step continuity errors : sum local = 1.16985e-07, global = -6.02523e-08, cumulative = 6.3468e-05
smoothSolver:  Solving for omega, Initial residual = 1.76914e-08, Final residual = 2.08113e-09, No Iterations 1
smoothSolver:  Solving for k, Initial residual = 3.67647e-07, Final residual = 1.35119e-08, No Iterations 1
ExecutionTime = 133.09 s  ClockTime = 133 s

forces forcesFish write:
    Sum of forces
        Total    : (2.74515 -0.0591102 -0.0536369)
        Pressure : (2.25119 -0.0602608 -0.0541974)
        Viscous  : (0.493967 0.00115063 0.00056053)
    Sum of moments
        Total    : (0.0010735 0.0127309 0.019253)
        Pressure : (0.00109296 0.0129928 0.0156961)
        Viscous  : (-1.94597e-05 -0.000261818 0.00355692)
    writing force and moment files.

Time = 157

smoothSolver:  Solving for Ux, Initial residual = 8.96577e-07, Final residual = 5.04857e-08, No Iterations 1
smoothSolver:  Solving for Uy, Initial residual = 8.00355e-06, Final residual = 6.17437e-07, No Iterations 1
smoothSolver:  Solving for Uz, Initial residual = 1.97438e-05, Final residual = 1.49974e-06, No Iterations 1
GAMG:  Solving for p, Initial residual = 3.70665e-05, Final residual = 3.56352e-06, No Iterations 1
time step continuity errors : sum local = 2.51578e-07, global = -5.8228e-08, cumulative = 6.34098e-05
smoothSolver:  Solving for omega, Initial residual = 1.68588e-08, Final residual = 1.97319e-09, No Iterations 1
smoothSolver:  Solving for k, Initial residual = 3.45167e-07, Final residual = 1.29559e-08, No Iterations 1
ExecutionTime = 133.87 s  ClockTime = 134 s

forces forcesFish write:
    Sum of forces
        Total    : (2.74515 -0.0590497 -0.0536339)
        Pressure : (2.25117 -0.060201 -0.0541944)
        Viscous  : (0.493972 0.00115139 0.00056057)
    Sum of moments
        Total    : (0.00107342 0.0127299 0.0192771)
        Pressure : (0.00109288 0.0129918 0.0157199)
        Viscous  : (-1.94594e-05 -0.000261843 0.00355714)
    writing force and moment files.

Time = 158

smoothSolver:  Solving for Ux, Initial residual = 8.23009e-07, Final residual = 4.81446e-08, No Iterations 1
smoothSolver:  Solving for Uy, Initial residual = 7.43395e-06, Final residual = 5.7319e-07, No Iterations 1
smoothSolver:  Solving for Uz, Initial residual = 1.832e-05, Final residual = 1.38526e-06, No Iterations 1
GAMG:  Solving for p, Initial residual = 3.54506e-05, Final residual = 3.45922e-06, No Iterations 1
time step continuity errors : sum local = 2.44213e-07, global = -5.01615e-08, cumulative = 6.33596e-05
smoothSolver:  Solving for omega, Initial residual = 1.59221e-08, Final residual = 1.88977e-09, No Iterations 1
smoothSolver:  Solving for k, Initial residual = 3.24052e-07, Final residual = 1.22967e-08, No Iterations 1
ExecutionTime = 134.68 s  ClockTime = 134 s

forces forcesFish write:
    Sum of forces
        Total    : (2.74514 -0.0589917 -0.0536303)
        Pressure : (2.25116 -0.0601439 -0.0541908)
        Viscous  : (0.493976 0.00115215 0.000560431)
    Sum of moments
        Total    : (0.00107334 0.0127288 0.0193002)
        Pressure : (0.0010928 0.0129906 0.0157428)
        Viscous  : (-1.9459e-05 -0.000261796 0.00355736)
    writing force and moment files.

Time = 159

smoothSolver:  Solving for Ux, Initial residual = 7.5448e-07, Final residual = 4.47758e-08, No Iterations 1
smoothSolver:  Solving for Uy, Initial residual = 6.93196e-06, Final residual = 5.31885e-07, No Iterations 1
smoothSolver:  Solving for Uz, Initial residual = 1.70656e-05, Final residual = 1.28048e-06, No Iterations 1
GAMG:  Solving for p, Initial residual = 3.38696e-05, Final residual = 3.35812e-06, No Iterations 1
time step continuity errors : sum local = 2.37075e-07, global = -4.19448e-08, cumulative = 6.33177e-05
smoothSolver:  Solving for omega, Initial residual = 1.50374e-08, Final residual = 1.79585e-09, No Iterations 1
smoothSolver:  Solving for k, Initial residual = 3.03916e-07, Final residual = 1.1622e-08, No Iterations 1
ExecutionTime = 135.45 s  ClockTime = 135 s

forces forcesFish write:
    Sum of forces
        Total    : (2.74514 -0.0589361 -0.053626)
        Pressure : (2.25115 -0.060089 -0.0541864)
        Viscous  : (0.493981 0.00115283 0.000560417)
    Sum of moments
        Total    : (0.00107326 0.0127273 0.0193224)
        Pressure : (0.00109271 0.0129891 0.0157648)
        Viscous  : (-1.94584e-05 -0.000261798 0.00355755)
    writing force and moment files.

Time = 160

smoothSolver:  Solving for Ux, Initial residual = 6.92857e-07, Final residual = 4.17212e-08, No Iterations 1
smoothSolver:  Solving for Uy, Initial residual = 6.47033e-06, Final residual = 4.95688e-07, No Iterations 1
smoothSolver:  Solving for Uz, Initial residual = 1.58944e-05, Final residual = 1.18675e-06, No Iterations 1
GAMG:  Solving for p, Initial residual = 3.23297e-05, Final residual = 1.29367e-06, No Iterations 2
time step continuity errors : sum local = 9.133e-08, global = -3.41027e-08, cumulative = 6.32836e-05
smoothSolver:  Solving for omega, Initial residual = 1.41547e-08, Final residual = 1.68883e-09, No Iterations 1
smoothSolver:  Solving for k, Initial residual = 2.85513e-07, Final residual = 1.09345e-08, No Iterations 1
ExecutionTime = 136.27 s  ClockTime = 136 s

forces forcesFish write:
    Sum of forces
        Total    : (2.74511 -0.0588611 -0.0536172)
        Pressure : (2.25113 -0.0600147 -0.0541775)
        Viscous  : (0.493985 0.00115355 0.000560282)
    Sum of moments
        Total    : (0.00107314 0.0127244 0.0193527)
        Pressure : (0.00109259 0.0129862 0.015795)
        Viscous  : (-1.9458e-05 -0.000261752 0.00355776)
    writing force and moment files.

Time = 161

smoothSolver:  Solving for Ux, Initial residual = 6.27504e-07, Final residual = 3.80583e-08, No Iterations 1
smoothSolver:  Solving for Uy, Initial residual = 6.01788e-06, Final residual = 4.74279e-07, No Iterations 1
smoothSolver:  Solving for Uz, Initial residual = 1.47359e-05, Final residual = 1.13493e-06, No Iterations 1
GAMG:  Solving for p, Initial residual = 3.06054e-05, Final residual = 2.85714e-06, No Iterations 1
time step continuity errors : sum local = 2.01705e-07, global = -2.44538e-08, cumulative = 6.32591e-05
smoothSolver:  Solving for omega, Initial residual = 1.35117e-08, Final residual = 1.61602e-09, No Iterations 1
smoothSolver:  Solving for k, Initial residual = 2.66345e-07, Final residual = 1.03467e-08, No Iterations 1
ExecutionTime = 137.06 s  ClockTime = 137 s

forces forcesFish write:
    Sum of forces
        Total    : (2.74511 -0.0588157 -0.0536114)
        Pressure : (2.25112 -0.0599699 -0.0541717)
        Viscous  : (0.493989 0.0011542 0.000560304)
    Sum of moments
        Total    : (0.00107306 0.0127225 0.019371)
        Pressure : (0.00109252 0.0129842 0.015813)
        Viscous  : (-1.94575e-05 -0.000261768 0.00355795)
    writing force and moment files.

Time = 162

smoothSolver:  Solving for Ux, Initial residual = 5.78368e-07, Final residual = 3.6184e-08, No Iterations 1
smoothSolver:  Solving for Uy, Initial residual = 5.57466e-06, Final residual = 4.41193e-07, No Iterations 1
smoothSolver:  Solving for Uz, Initial residual = 1.35815e-05, Final residual = 1.05101e-06, No Iterations 1
GAMG:  Solving for p, Initial residual = 2.91629e-05, Final residual = 2.73627e-06, No Iterations 1
time step continuity errors : sum local = 1.93171e-07, global = -1.56161e-08, cumulative = 6.32435e-05
smoothSolver:  Solving for omega, Initial residual = 1.2692e-08, Final residual = 1.53779e-09, No Iterations 1
smoothSolver:  Solving for k, Initial residual = 2.49018e-07, Final residual = 9.81522e-09, No Iterations 1
ExecutionTime = 137.85 s  ClockTime = 138 s

forces forcesFish write:
    Sum of forces
        Total    : (2.74511 -0.0587726 -0.0536052)
        Pressure : (2.25112 -0.0599274 -0.0541653)
        Viscous  : (0.493992 0.00115486 0.000560133)
    Sum of moments
        Total    : (0.00107298 0.0127203 0.0193884)
        Pressure : (0.00109244 0.012982 0.0158302)
        Viscous  : (-1.94569e-05 -0.000261706 0.00355815)
    writing force and moment files.

Time = 163

smoothSolver:  Solving for Ux, Initial residual = 5.35451e-07, Final residual = 3.39582e-08, No Iterations 1
smoothSolver:  Solving for Uy, Initial residual = 5.18157e-06, Final residual = 4.09936e-07, No Iterations 1
smoothSolver:  Solving for Uz, Initial residual = 1.25746e-05, Final residual = 9.73647e-07, No Iterations 1
GAMG:  Solving for p, Initial residual = 2.77673e-05, Final residual = 2.64312e-06, No Iterations 1
time step continuity errors : sum local = 1.86595e-07, global = -6.85534e-09, cumulative = 6.32367e-05
smoothSolver:  Solving for omega, Initial residual = 1.20152e-08, Final residual = 1.46079e-09, No Iterations 1
smoothSolver:  Solving for k, Initial residual = 2.32911e-07, Final residual = 9.28535e-09, No Iterations 1
ExecutionTime = 138.66 s  ClockTime = 138 s

forces forcesFish write:
    Sum of forces
        Total    : (2.74512 -0.0587317 -0.0535981)
        Pressure : (2.25112 -0.0598872 -0.0541583)
        Viscous  : (0.493996 0.00115544 0.000560144)
    Sum of moments
        Total    : (0.00107291 0.0127179 0.0194049)
        Pressure : (0.00109236 0.0129796 0.0158466)
        Viscous  : (-1.94562e-05 -0.000261717 0.00355832)
    writing force and moment files.

Time = 164

smoothSolver:  Solving for Ux, Initial residual = 4.97939e-07, Final residual = 3.19598e-08, No Iterations 1
smoothSolver:  Solving for Uy, Initial residual = 4.82368e-06, Final residual = 3.82263e-07, No Iterations 1
smoothSolver:  Solving for Uz, Initial residual = 1.16628e-05, Final residual = 9.03778e-07, No Iterations 1
GAMG:  Solving for p, Initial residual = 2.64378e-05, Final residual = 2.56626e-06, No Iterations 1
time step continuity errors : sum local = 1.81169e-07, global = 1.71326e-09, cumulative = 6.32384e-05
smoothSolver:  Solving for omega, Initial residual = 1.13231e-08, Final residual = 1.38462e-09, No Iterations 1
smoothSolver:  Solving for k, Initial residual = 2.17802e-07, Final residual = 8.77251e-09, No Iterations 1
ExecutionTime = 139.47 s  ClockTime = 139 s

forces forcesFish write:
    Sum of forces
        Total    : (2.74512 -0.0586931 -0.0535906)
        Pressure : (2.25113 -0.0598491 -0.0541506)
        Viscous  : (0.493999 0.00115603 0.00055997)
    Sum of moments
        Total    : (0.00107283 0.0127153 0.0194207)
        Pressure : (0.00109229 0.012977 0.0158622)
        Viscous  : (-1.94555e-05 -0.000261654 0.0035585)
    writing force and moment files.

Time = 165

smoothSolver:  Solving for Ux, Initial residual = 4.64767e-07, Final residual = 3.01513e-08, No Iterations 1
smoothSolver:  Solving for Uy, Initial residual = 4.48591e-06, Final residual = 3.57402e-07, No Iterations 1
smoothSolver:  Solving for Uz, Initial residual = 1.08227e-05, Final residual = 8.4185e-07, No Iterations 1
GAMG:  Solving for p, Initial residual = 2.51703e-05, Final residual = 2.49992e-06, No Iterations 1
time step continuity errors : sum local = 1.76485e-07, global = 1.00766e-08, cumulative = 6.32484e-05
smoothSolver:  Solving for omega, Initial residual = 1.07105e-08, Final residual = 1.31197e-09, No Iterations 1
smoothSolver:  Solving for k, Initial residual = 2.03572e-07, Final residual = 8.2804e-09, No Iterations 1
ExecutionTime = 140.27 s  ClockTime = 140 s

forces forcesFish write:
    Sum of forces
        Total    : (2.74513 -0.0586568 -0.0535823)
        Pressure : (2.25113 -0.0598134 -0.0541423)
        Viscous  : (0.494002 0.00115657 0.000559956)
    Sum of moments
        Total    : (0.00107275 0.0127125 0.0194357)
        Pressure : (0.00109221 0.0129741 0.015877)
        Viscous  : (-1.94547e-05 -0.000261654 0.00355866)
    writing force and moment files.

Time = 166

smoothSolver:  Solving for Ux, Initial residual = 4.35335e-07, Final residual = 2.85043e-08, No Iterations 1
smoothSolver:  Solving for Uy, Initial residual = 4.16565e-06, Final residual = 3.35175e-07, No Iterations 1
smoothSolver:  Solving for Uz, Initial residual = 1.00379e-05, Final residual = 7.86767e-07, No Iterations 1
GAMG:  Solving for p, Initial residual = 2.39563e-05, Final residual = 8.84341e-07, No Iterations 2
time step continuity errors : sum local = 6.24314e-08, global = 1.43652e-08, cumulative = 6.32628e-05
smoothSolver:  Solving for omega, Initial residual = 1.0043e-08, Final residual = 1.22074e-09, No Iterations 1
smoothSolver:  Solving for k, Initial residual = 1.9153e-07, Final residual = 7.89795e-09, No Iterations 1
ExecutionTime = 141.07 s  ClockTime = 141 s

forces forcesFish write:
    Sum of forces
        Total    : (2.74514 -0.0586111 -0.0535669)
        Pressure : (2.25113 -0.0597683 -0.0541267)
        Viscous  : (0.494005 0.00115714 0.000559773)
    Sum of moments
        Total    : (0.00107263 0.0127073 0.0194551)
        Pressure : (0.00109208 0.0129689 0.0158963)
        Viscous  : (-1.94541e-05 -0.000261586 0.00355884)
    writing force and moment files.

Time = 167

smoothSolver:  Solving for Ux, Initial residual = 4.18775e-07, Final residual = 2.70055e-08, No Iterations 1
smoothSolver:  Solving for Uy, Initial residual = 3.85699e-06, Final residual = 3.23737e-07, No Iterations 1
smoothSolver:  Solving for Uz, Initial residual = 9.37611e-06, Final residual = 7.62901e-07, No Iterations 1
GAMG:  Solving for p, Initial residual = 2.25894e-05, Final residual = 2.16099e-06, No Iterations 1
time step continuity errors : sum local = 1.52558e-07, global = 2.41628e-08, cumulative = 6.3287e-05
smoothSolver:  Solving for omega, Initial residual = 9.6565e-09, Final residual = 9.6565e-09, No Iterations 0
smoothSolver:  Solving for k, Initial residual = 1.81281e-07, Final residual = 7.49856e-09, No Iterations 1
ExecutionTime = 141.86 s  ClockTime = 142 s


SIMPLE solution converged in 167 iterations

forces forcesFish write:
    Sum of forces
        Total    : (2.74515 -0.0585834 -0.0535576)
        Pressure : (2.25114 -0.0597411 -0.0541174)
        Viscous  : (0.494008 0.00115767 0.000559754)
    Sum of moments
        Total    : (0.00107256 0.0127041 0.0194667)
        Pressure : (0.00109201 0.0129657 0.0159077)
        Viscous  : (-1.94536e-05 -0.000261583 0.003559)
    writing force and moment files.

End

