/*---------------------------------------------------------------------------*\
| =========                 |                                                 |
| \\      /  F ield         | OpenFOAM: The Open Source CFD Toolbox           |
|  \\    /   O peration     | Version:  2512                                  |
|   \\  /    A nd           | Website:  www.openfoam.com                      |
|    \\/     M anipulation  |                                                 |
\*---------------------------------------------------------------------------*/
Build  : _bd2b6720-20260127 OPENFOAM=2512 version=2512
Arch   : "LSB;label=32;scalar=64"
Exec   : simpleFoam
Date   : Mar 28 2026
Time   : 17:18:28
Host   : mathias-laptop
PID    : 8184
I/O    : uncollated
Case   : /home/mat/OpenFOAM/mat-run/speed_sweep_runs/U_0p2
nProcs : 1
trapFpe: Floating point exception trapping enabled (FOAM_SIGFPE).
memory pool : not available
fileModificationChecking : Monitoring run-time modified files using timeStampMaster (fileModificationSkew 5, maxFileModificationPolls 20)
allowSystemOperations : Allowing user-supplied system call operations

// * * * * * * * * * * * * * * * * * * * * * * * * * * * * * * * * * * * * * //
Create time

Create mesh for time = 0


SIMPLE: convergence criteria
    field p	 tolerance 0.0001
    field U	 tolerance 1e-05
    field "(k|omega)"	 tolerance 1e-05

Reading field p

Reading field U

Reading/calculating face flux field phi

Selecting incompressible transport model Newtonian
Selecting turbulence model type RAS
Selecting RAS turbulence model kOmegaSST
Selecting patchDistMethod meshWave
RAS
{
    RASModel        kOmegaSST;
    turbulence      on;
    printCoeffs     on;
    alphaK1         0.85;
    alphaK2         1;
    alphaOmega1     0.5;
    alphaOmega2     0.856;
    gamma1          0.555556;
    gamma2          0.44;
    beta1           0.075;
    beta2           0.0828;
    betaStar        0.09;
    a1              0.31;
    b1              1;
    c1              10;
    F3              false;
    decayControl    false;
    kInf            0;
    omegaInf        0;
}

No MRF models present

No finite volume options present

Starting time loop

forces forcesFish:
    rho: rhoInf
    Freestream density (rhoInf) set to 1000
    Not including porosity effects

Time = 1

smoothSolver:  Solving for Ux, Initial residual = 1, Final residual = 0.0898277, No Iterations 1
smoothSolver:  Solving for Uy, Initial residual = 1, Final residual = 0.0889226, No Iterations 1
smoothSolver:  Solving for Uz, Initial residual = 1, Final residual = 0.0887912, No Iterations 1
GAMG:  Solving for p, Initial residual = 1, Final residual = 0.0650056, No Iterations 5
time step continuity errors : sum local = 5.74931e-06, global = -5.9988e-07, cumulative = -5.9988e-07
smoothSolver:  Solving for omega, Initial residual = 0.0209399, Final residual = 0.00125381, No Iterations 1
bounding omega, min: -7.6536 max: 8219.15 average: 98.8051
smoothSolver:  Solving for k, Initial residual = 1, Final residual = 0.0735005, No Iterations 1
ExecutionTime = 2.8 s  ClockTime = 3 s

forces forcesFish write:
    Sum of forces
        Total    : (0.315678 0.0278699 0.000490682)
        Pressure : (0.269811 0.0278448 0.000489648)
        Viscous  : (0.0458671 2.51265e-05 1.0346e-06)
    Sum of moments
        Total    : (4.512e-06 -0.000378549 0.00860847)
        Pressure : (4.50826e-06 -0.000377645 0.00856343)
        Viscous  : (3.7364e-09 -9.04384e-07 4.50369e-05)
    writing force and moment files.

Time = 2

smoothSolver:  Solving for Ux, Initial residual = 0.0555549, Final residual = 0.00405102, No Iterations 2
smoothSolver:  Solving for Uy, Initial residual = 0.15537, Final residual = 0.0152448, No Iterations 2
smoothSolver:  Solving for Uz, Initial residual = 0.360557, Final residual = 0.0121824, No Iterations 3
GAMG:  Solving for p, Initial residual = 0.18272, Final residual = 0.016321, No Iterations 3
time step continuity errors : sum local = 9.4021e-06, global = -6.47484e-07, cumulative = -1.24736e-06
smoothSolver:  Solving for omega, Initial residual = 0.00962949, Final residual = 0.00070924, No Iterations 1
smoothSolver:  Solving for k, Initial residual = 0.445107, Final residual = 0.0389672, No Iterations 1
ExecutionTime = 3.57 s  ClockTime = 3 s

forces forcesFish write:
    Sum of forces
        Total    : (0.377626 0.0351605 0.000404377)
        Pressure : (0.336437 0.0351703 0.000408762)
        Viscous  : (0.041189 -9.77825e-06 -4.38509e-06)
    Sum of moments
        Total    : (3.90518e-06 -0.00048111 0.010637)
        Pressure : (3.85534e-06 -0.000480243 0.0106098)
        Viscous  : (4.98488e-08 -8.67032e-07 2.71881e-05)
    writing force and moment files.

Time = 3

smoothSolver:  Solving for Ux, Initial residual = 0.00684752, Final residual = 0.000525746, No Iterations 2
smoothSolver:  Solving for Uy, Initial residual = 0.07711, Final residual = 0.00744206, No Iterations 2
smoothSolver:  Solving for Uz, Initial residual = 0.232553, Final residual = 0.0230789, No Iterations 2
GAMG:  Solving for p, Initial residual = 0.146885, Final residual = 0.0118105, No Iterations 2
time step continuity errors : sum local = 1.65914e-05, global = -7.95017e-07, cumulative = -2.04238e-06
smoothSolver:  Solving for omega, Initial residual = 0.00578632, Final residual = 0.00049511, No Iterations 1
smoothSolver:  Solving for k, Initial residual = 0.269976, Final residual = 0.0263809, No Iterations 1
ExecutionTime = 4.28 s  ClockTime = 4 s

forces forcesFish write:
    Sum of forces
        Total    : (0.346947 0.0324633 -2.51992e-05)
        Pressure : (0.308769 0.0325091 -1.72637e-05)
        Viscous  : (0.0381781 -4.57854e-05 -7.93553e-06)
    Sum of moments
        Total    : (6.19311e-06 -0.000407627 0.00961354)
        Pressure : (6.13141e-06 -0.000406648 0.00960315)
        Viscous  : (6.16994e-08 -9.78657e-07 1.03908e-05)
    writing force and moment files.

Time = 4

smoothSolver:  Solving for Ux, Initial residual = 0.00349002, Final residual = 0.000265378, No Iterations 2
smoothSolver:  Solving for Uy, Initial residual = 0.0451687, Final residual = 0.00429713, No Iterations 2
smoothSolver:  Solving for Uz, Initial residual = 0.155303, Final residual = 0.0152152, No Iterations 2
GAMG:  Solving for p, Initial residual = 0.13976, Final residual = 0.0138727, No Iterations 2
time step continuity errors : sum local = 2.77198e-05, global = -8.91147e-07, cumulative = -2.93353e-06
smoothSolver:  Solving for omega, Initial residual = 0.00384518, Final residual = 0.000362381, No Iterations 1
smoothSolver:  Solving for k, Initial residual = 0.181921, Final residual = 0.00206165, No Iterations 2
ExecutionTime = 4.99 s  ClockTime = 5 s

forces forcesFish write:
    Sum of forces
        Total    : (0.266425 0.0244852 -0.000390913)
        Pressure : (0.230432 0.0245523 -0.000381375)
        Viscous  : (0.0359932 -6.71579e-05 -9.53812e-06)
    Sum of moments
        Total    : (9.38108e-06 -0.00028546 0.00696898)
        Pressure : (9.32069e-06 -0.000284486 0.00696888)
        Viscous  : (6.03878e-08 -9.74494e-07 1.04119e-07)
    writing force and moment files.

Time = 5

smoothSolver:  Solving for Ux, Initial residual = 0.00209817, Final residual = 0.000153722, No Iterations 2
smoothSolver:  Solving for Uy, Initial residual = 0.0265306, Final residual = 0.00247614, No Iterations 2
smoothSolver:  Solving for Uz, Initial residual = 0.0985067, Final residual = 0.00945279, No Iterations 2
GAMG:  Solving for p, Initial residual = 0.114134, Final residual = 0.0057249, No Iterations 3
time step continuity errors : sum local = 1.45619e-05, global = -6.55828e-07, cumulative = -3.58935e-06
smoothSolver:  Solving for omega, Initial residual = 0.0027375, Final residual = 0.00027228, No Iterations 1
smoothSolver:  Solving for k, Initial residual = 0.129915, Final residual = 0.00160516, No Iterations 2
ExecutionTime = 5.72 s  ClockTime = 6 s

forces forcesFish write:
    Sum of forces
        Total    : (0.158346 0.0134781 -0.000258458)
        Pressure : (0.123915 0.0135548 -0.000249659)
        Viscous  : (0.0344313 -7.66645e-05 -8.79873e-06)
    Sum of moments
        Total    : (6.4322e-06 -0.000177843 0.00352142)
        Pressure : (6.38431e-06 -0.000176889 0.00352578)
        Viscous  : (4.78937e-08 -9.53939e-07 -4.36016e-06)
    writing force and moment files.

Time = 6

smoothSolver:  Solving for Ux, Initial residual = 0.00127098, Final residual = 8.32309e-05, No Iterations 2
smoothSolver:  Solving for Uy, Initial residual = 0.0128564, Final residual = 0.00107933, No Iterations 2
smoothSolver:  Solving for Uz, Initial residual = 0.0485888, Final residual = 0.00416331, No Iterations 2
GAMG:  Solving for p, Initial residual = 0.0801682, Final residual = 0.0045465, No Iterations 3
time step continuity errors : sum local = 1.38107e-05, global = -3.43528e-07, cumulative = -3.93288e-06
smoothSolver:  Solving for omega, Initial residual = 0.00203839, Final residual = 2.31696e-05, No Iterations 2
smoothSolver:  Solving for k, Initial residual = 0.0970753, Final residual = 0.00128739, No Iterations 2
ExecutionTime = 6.5 s  ClockTime = 6 s

forces forcesFish write:
    Sum of forces
        Total    : (0.0628127 0.00349286 -8.36914e-05)
        Pressure : (0.0295224 0.00357033 -7.69847e-05)
        Viscous  : (0.0332903 -7.74752e-05 -6.70669e-06)
    Sum of moments
        Total    : (2.93128e-06 -6.79168e-05 0.000485144)
        Pressure : (2.90476e-06 -6.70466e-05 0.000489799)
        Viscous  : (2.6527e-08 -8.70194e-07 -4.65453e-06)
    writing force and moment files.

Time = 7

smoothSolver:  Solving for Ux, Initial residual = 0.000931014, Final residual = 4.72608e-05, No Iterations 2
smoothSolver:  Solving for Uy, Initial residual = 0.00774335, Final residual = 0.000312224, No Iterations 2
smoothSolver:  Solving for Uz, Initial residual = 0.0296315, Final residual = 0.00125121, No Iterations 2
GAMG:  Solving for p, Initial residual = 0.0525549, Final residual = 0.00309388, No Iterations 3
time step continuity errors : sum local = 1.04859e-05, global = 7.99554e-08, cumulative = -3.85293e-06
smoothSolver:  Solving for omega, Initial residual = 0.00151718, Final residual = 1.85766e-05, No Iterations 2
smoothSolver:  Solving for k, Initial residual = 0.0759475, Final residual = 0.00108308, No Iterations 2
ExecutionTime = 7.24 s  ClockTime = 7 s

forces forcesFish write:
    Sum of forces
        Total    : (-0.00324381 -0.00372097 9.93038e-05)
        Pressure : (-0.03569 -0.00364811 0.000103359)
        Viscous  : (0.0324462 -7.28615e-05 -4.05512e-06)
    Sum of moments
        Total    : (-3.52497e-07 1.86735e-05 -0.00161869)
        Pressure : (-3.61379e-07 1.94818e-05 -0.00161655)
        Viscous  : (8.88153e-09 -8.0824e-07 -2.13931e-06)
    writing force and moment files.

Time = 8

smoothSolver:  Solving for Ux, Initial residual = 0.000875104, Final residual = 4.5128e-05, No Iterations 2
smoothSolver:  Solving for Uy, Initial residual = 0.011801, Final residual = 0.000896576, No Iterations 2
smoothSolver:  Solving for Uz, Initial residual = 0.05762, Final residual = 0.00485187, No Iterations 2
GAMG:  Solving for p, Initial residual = 0.0377999, Final residual = 0.00171827, No Iterations 3
time step continuity errors : sum local = 6.20614e-06, global = 4.38389e-07, cumulative = -3.41454e-06
smoothSolver:  Solving for omega, Initial residual = 0.00116952, Final residual = 1.51406e-05, No Iterations 2
smoothSolver:  Solving for k, Initial residual = 0.0617918, Final residual = 0.000933694, No Iterations 2
ExecutionTime = 8 s  ClockTime = 8 s

forces forcesFish write:
    Sum of forces
        Total    : (-0.0348979 -0.00724246 0.000281623)
        Pressure : (-0.0666953 -0.0071774 0.000283282)
        Viscous  : (0.0317974 -6.50619e-05 -1.65919e-06)
    Sum of moments
        Total    : (-2.57269e-06 6.46342e-05 -0.00255069)
        Pressure : (-2.57457e-06 6.53847e-05 -0.00255264)
        Viscous  : (1.87586e-09 -7.50501e-07 1.95713e-06)
    writing force and moment files.

Time = 9

smoothSolver:  Solving for Ux, Initial residual = 0.000882447, Final residual = 4.95596e-05, No Iterations 2
smoothSolver:  Solving for Uy, Initial residual = 0.0164872, Final residual = 0.00137864, No Iterations 2
smoothSolver:  Solving for Uz, Initial residual = 0.0840581, Final residual = 0.00750852, No Iterations 2
GAMG:  Solving for p, Initial residual = 0.0392371, Final residual = 0.00262179, No Iterations 2
time step continuity errors : sum local = 9.63801e-06, global = 7.787e-07, cumulative = -2.63584e-06
smoothSolver:  Solving for omega, Initial residual = 0.000925721, Final residual = 1.25184e-05, No Iterations 2
smoothSolver:  Solving for k, Initial residual = 0.0516015, Final residual = 0.000817287, No Iterations 2
ExecutionTime = 8.73 s  ClockTime = 9 s

forces forcesFish write:
    Sum of forces
        Total    : (-0.0363271 -0.00752297 0.000493999)
        Pressure : (-0.0675937 -0.00746683 0.000493732)
        Viscous  : (0.0312667 -5.61416e-05 2.66669e-07)
    Sum of moments
        Total    : (-4.61182e-06 5.08633e-05 -0.00250756)
        Pressure : (-4.61587e-06 5.15641e-05 -0.00251377)
        Viscous  : (4.04425e-09 -7.00816e-07 6.2147e-06)
    writing force and moment files.

Time = 10

smoothSolver:  Solving for Ux, Initial residual = 0.000837744, Final residual = 4.71363e-05, No Iterations 2
smoothSolver:  Solving for Uy, Initial residual = 0.0185317, Final residual = 0.00154936, No Iterations 2
smoothSolver:  Solving for Uz, Initial residual = 0.0925177, Final residual = 0.00822511, No Iterations 2
GAMG:  Solving for p, Initial residual = 0.0480477, Final residual = 0.00365614, No Iterations 2
time step continuity errors : sum local = 1.30242e-05, global = 1.164e-06, cumulative = -1.47184e-06
smoothSolver:  Solving for omega, Initial residual = 0.000747673, Final residual = 1.04866e-05, No Iterations 2
smoothSolver:  Solving for k, Initial residual = 0.0441171, Final residual = 0.000726457, No Iterations 2
ExecutionTime = 9.3 s  ClockTime = 9 s

forces forcesFish write:
    Sum of forces
        Total    : (-0.0204004 -0.00596461 0.000717113)
        Pressure : (-0.0511859 -0.00591621 0.000715776)
        Viscous  : (0.0307854 -4.8396e-05 1.33756e-06)
    Sum of moments
        Total    : (-5.37901e-06 9.39782e-06 -0.00189713)
        Pressure : (-5.39133e-06 1.00639e-05 -0.0019066)
        Viscous  : (1.23182e-08 -6.66099e-07 9.47286e-06)
    writing force and moment files.

Time = 11

smoothSolver:  Solving for Ux, Initial residual = 0.000730011, Final residual = 3.84286e-05, No Iterations 2
smoothSolver:  Solving for Uy, Initial residual = 0.017485, Final residual = 0.00141125, No Iterations 2
smoothSolver:  Solving for Uz, Initial residual = 0.0819975, Final residual = 0.00709244, No Iterations 2
GAMG:  Solving for p, Initial residual = 0.0531806, Final residual = 0.00490237, No Iterations 2
time step continuity errors : sum local = 1.60104e-05, global = 1.41729e-06, cumulative = -5.45449e-08
smoothSolver:  Solving for omega, Initial residual = 0.000613863, Final residual = 8.87718e-06, No Iterations 2
smoothSolver:  Solving for k, Initial residual = 0.0382771, Final residual = 0.000651223, No Iterations 2
ExecutionTime = 9.85 s  ClockTime = 10 s

forces forcesFish write:
    Sum of forces
        Total    : (0.00448268 -0.00343376 0.000810892)
        Pressure : (-0.0258356 -0.00339062 0.000809441)
        Viscous  : (0.0303183 -4.31339e-05 1.45036e-06)
    Sum of moments
        Total    : (-4.51312e-06 -3.08385e-05 -0.00102098)
        Pressure : (-4.5397e-06 -3.02368e-05 -0.00103212)
        Viscous  : (2.65753e-08 -6.01652e-07 1.11418e-05)
    writing force and moment files.

Time = 12

smoothSolver:  Solving for Ux, Initial residual = 0.00059986, Final residual = 2.77015e-05, No Iterations 2
smoothSolver:  Solving for Uy, Initial residual = 0.0135542, Final residual = 0.000955762, No Iterations 2
smoothSolver:  Solving for Uz, Initial residual = 0.0581079, Final residual = 0.00449567, No Iterations 2
GAMG:  Solving for p, Initial residual = 0.0546256, Final residual = 0.00239053, No Iterations 3
time step continuity errors : sum local = 6.72016e-06, global = 1.23963e-06, cumulative = 1.18508e-06
smoothSolver:  Solving for omega, Initial residual = 0.000510842, Final residual = 7.5653e-06, No Iterations 2
smoothSolver:  Solving for k, Initial residual = 0.0336877, Final residual = 0.000589302, No Iterations 2
ExecutionTime = 10.42 s  ClockTime = 10 s

forces forcesFish write:
    Sum of forces
        Total    : (0.032727 -0.000503336 0.000487745)
        Pressure : (0.0028635 -0.000462985 0.000487024)
        Viscous  : (0.0298635 -4.03506e-05 7.20627e-07)
    Sum of moments
        Total    : (-1.4561e-06 -2.05492e-05 -8.67409e-05)
        Pressure : (-1.49803e-06 -2.00789e-05 -9.80215e-05)
        Viscous  : (4.19371e-08 -4.7033e-07 1.12807e-05)
    writing force and moment files.

Time = 13

smoothSolver:  Solving for Ux, Initial residual = 0.000476452, Final residual = 1.91333e-05, No Iterations 2
smoothSolver:  Solving for Uy, Initial residual = 0.00974377, Final residual = 0.00042974, No Iterations 2
smoothSolver:  Solving for Uz, Initial residual = 0.0348323, Final residual = 0.00163461, No Iterations 2
GAMG:  Solving for p, Initial residual = 0.0551414, Final residual = 0.00241403, No Iterations 3
time step continuity errors : sum local = 5.32672e-06, global = 1.07509e-06, cumulative = 2.26017e-06
smoothSolver:  Solving for omega, Initial residual = 0.000430015, Final residual = 6.49569e-06, No Iterations 2
smoothSolver:  Solving for k, Initial residual = 0.0299138, Final residual = 0.000535811, No Iterations 2
ExecutionTime = 10.99 s  ClockTime = 11 s

forces forcesFish write:
    Sum of forces
        Total    : (0.0541932 0.00181439 0.000102154)
        Pressure : (0.0247701 0.00185452 0.000102781)
        Viscous  : (0.0294231 -4.01316e-05 -6.27574e-07)
    Sum of moments
        Total    : (9.20571e-07 2.10993e-06 0.000604247)
        Pressure : (8.67429e-07 2.37543e-06 0.000594146)
        Viscous  : (5.31425e-08 -2.65501e-07 1.01008e-05)
    writing force and moment files.

Time = 14

smoothSolver:  Solving for Ux, Initial residual = 0.000439682, Final residual = 1.89689e-05, No Iterations 2
smoothSolver:  Solving for Uy, Initial residual = 0.0104745, Final residual = 0.000624166, No Iterations 2
smoothSolver:  Solving for Uz, Initial residual = 0.0401462, Final residual = 0.00253257, No Iterations 2
GAMG:  Solving for p, Initial residual = 0.0554585, Final residual = 0.00478708, No Iterations 2
time step continuity errors : sum local = 8.30905e-06, global = 1.01296e-06, cumulative = 3.27313e-06
smoothSolver:  Solving for omega, Initial residual = 0.000365589, Final residual = 5.61661e-06, No Iterations 2
smoothSolver:  Solving for k, Initial residual = 0.0268118, Final residual = 0.000490059, No Iterations 2
ExecutionTime = 11.55 s  ClockTime = 11 s

forces forcesFish write:
    Sum of forces
        Total    : (0.0648758 0.00306489 -0.000152434)
        Pressure : (0.0358778 0.00310693 -0.000150278)
        Viscous  : (0.028998 -4.20359e-05 -2.15614e-06)
    Sum of moments
        Total    : (2.23449e-06 2.06036e-05 0.000942871)
        Pressure : (2.17726e-06 2.06367e-05 0.000934782)
        Viscous  : (5.72366e-08 -3.30602e-08 8.08911e-06)
    writing force and moment files.

Time = 15

smoothSolver:  Solving for Ux, Initial residual = 0.000428094, Final residual = 1.97809e-05, No Iterations 2
smoothSolver:  Solving for Uy, Initial residual = 0.0107095, Final residual = 0.000736262, No Iterations 2
smoothSolver:  Solving for Uz, Initial residual = 0.0443541, Final residual = 0.00325967, No Iterations 2
GAMG:  Solving for p, Initial residual = 0.057536, Final residual = 0.00376747, No Iterations 2
time step continuity errors : sum local = 5.71147e-06, global = 7.14348e-07, cumulative = 3.98748e-06
smoothSolver:  Solving for omega, Initial residual = 0.000313082, Final residual = 4.87157e-06, No Iterations 2
smoothSolver:  Solving for k, Initial residual = 0.0241803, Final residual = 0.000449727, No Iterations 2
ExecutionTime = 12.12 s  ClockTime = 12 s

forces forcesFish write:
    Sum of forces
        Total    : (0.0674577 0.00348785 -0.000399138)
        Pressure : (0.038858 0.00353292 -0.000395607)
        Viscous  : (0.0285998 -4.50667e-05 -3.53162e-06)
    Sum of moments
        Total    : (3.03989e-06 4.94022e-05 0.00100926)
        Pressure : (2.98394e-06 4.92113e-05 0.00100344)
        Viscous  : (5.59551e-08 1.9089e-07 5.82091e-06)
    writing force and moment files.

Time = 16

smoothSolver:  Solving for Ux, Initial residual = 0.000395765, Final residual = 1.85366e-05, No Iterations 2
smoothSolver:  Solving for Uy, Initial residual = 0.00957032, Final residual = 0.000674336, No Iterations 2
smoothSolver:  Solving for Uz, Initial residual = 0.041599, Final residual = 0.00314087, No Iterations 2
GAMG:  Solving for p, Initial residual = 0.0616635, Final residual = 0.00411954, No Iterations 2
time step continuity errors : sum local = 6.11117e-06, global = 3.61651e-07, cumulative = 4.34913e-06
smoothSolver:  Solving for omega, Initial residual = 0.000269758, Final residual = 4.24108e-06, No Iterations 2
smoothSolver:  Solving for k, Initial residual = 0.0219407, Final residual = 0.000414232, No Iterations 2
ExecutionTime = 12.69 s  ClockTime = 13 s

forces forcesFish write:
    Sum of forces
        Total    : (0.0644374 0.00331339 -0.000614706)
        Pressure : (0.0361944 0.00336152 -0.000610159)
        Viscous  : (0.028243 -4.81303e-05 -4.54725e-06)
    Sum of moments
        Total    : (3.22231e-06 8.20131e-05 0.000889447)
        Pressure : (3.17158e-06 8.16445e-05 0.000885639)
        Viscous  : (5.07231e-08 3.68627e-07 3.80846e-06)
    writing force and moment files.

Time = 17

smoothSolver:  Solving for Ux, Initial residual = 0.000347136, Final residual = 1.611e-05, No Iterations 2
smoothSolver:  Solving for Uy, Initial residual = 0.00774426, Final residual = 0.000529124, No Iterations 2
smoothSolver:  Solving for Uz, Initial residual = 0.034045, Final residual = 0.00251561, No Iterations 2
GAMG:  Solving for p, Initial residual = 0.0580845, Final residual = 0.00408949, No Iterations 2
time step continuity errors : sum local = 6.53489e-06, global = -8.93998e-08, cumulative = 4.25973e-06
smoothSolver:  Solving for omega, Initial residual = 0.000233699, Final residual = 3.71213e-06, No Iterations 2
smoothSolver:  Solving for k, Initial residual = 0.0200025, Final residual = 0.000382541, No Iterations 2
ExecutionTime = 13.25 s  ClockTime = 13 s

forces forcesFish write:
    Sum of forces
        Total    : (0.057875 0.00272907 -0.000734577)
        Pressure : (0.0299431 0.00277976 -0.000729475)
        Viscous  : (0.0279319 -5.06879e-05 -5.10189e-06)
    Sum of moments
        Total    : (2.60243e-06 0.000104486 0.000655762)
        Pressure : (2.55877e-06 0.000103999 0.0006535)
        Viscous  : (4.36578e-08 4.86912e-07 2.26176e-06)
    writing force and moment files.

Time = 18

smoothSolver:  Solving for Ux, Initial residual = 0.00029527, Final residual = 1.33513e-05, No Iterations 2
smoothSolver:  Solving for Uy, Initial residual = 0.00573383, Final residual = 0.00034946, No Iterations 2
smoothSolver:  Solving for Uz, Initial residual = 0.0246396, Final residual = 0.00161608, No Iterations 2
GAMG:  Solving for p, Initial residual = 0.0463898, Final residual = 0.00358011, No Iterations 2
time step continuity errors : sum local = 6.57062e-06, global = -4.29073e-07, cumulative = 3.83066e-06
smoothSolver:  Solving for omega, Initial residual = 0.000203484, Final residual = 3.26795e-06, No Iterations 2
smoothSolver:  Solving for k, Initial residual = 0.0183113, Final residual = 0.000354088, No Iterations 2
ExecutionTime = 13.79 s  ClockTime = 14 s

forces forcesFish write:
    Sum of forces
        Total    : (0.0501207 0.00196953 -0.000704819)
        Pressure : (0.0224565 0.00202197 -0.000699635)
        Viscous  : (0.0276642 -5.24364e-05 -5.18397e-06)
    Sum of moments
        Total    : (1.48593e-06 0.000105092 0.000392681)
        Pressure : (1.44928e-06 0.000104573 0.000391435)
        Viscous  : (3.66555e-08 5.189e-07 1.24591e-06)
    writing force and moment files.

Time = 19

smoothSolver:  Solving for Ux, Initial residual = 0.000248631, Final residual = 1.07688e-05, No Iterations 2
smoothSolver:  Solving for Uy, Initial residual = 0.00410043, Final residual = 0.000184583, No Iterations 2
smoothSolver:  Solving for Uz, Initial residual = 0.0172282, Final residual = 0.000768935, No Iterations 2
GAMG:  Solving for p, Initial residual = 0.0342006, Final residual = 0.00280675, No Iterations 2
time step continuity errors : sum local = 5.96763e-06, global = -6.8253e-07, cumulative = 3.14813e-06
smoothSolver:  Solving for omega, Initial residual = 0.000178064, Final residual = 2.8946e-06, No Iterations 2
smoothSolver:  Solving for k, Initial residual = 0.0168325, Final residual = 0.000328534, No Iterations 2
ExecutionTime = 14.33 s  ClockTime = 14 s

forces forcesFish write:
    Sum of forces
        Total    : (0.043085 0.00123773 -0.000529692)
        Pressure : (0.015651 0.00129094 -0.000524826)
        Viscous  : (0.027434 -5.32107e-05 -4.86631e-06)
    Sum of moments
        Total    : (2.62573e-07 8.14714e-05 0.00016538)
        Pressure : (2.31217e-07 8.09955e-05 0.000164618)
        Viscous  : (3.13552e-08 4.75895e-07 7.61374e-07)
    writing force and moment files.

Time = 20

smoothSolver:  Solving for Ux, Initial residual = 0.000208549, Final residual = 8.77993e-06, No Iterations 2
smoothSolver:  Solving for Uy, Initial residual = 0.00368793, Final residual = 0.000148416, No Iterations 2
smoothSolver:  Solving for Uz, Initial residual = 0.0177273, Final residual = 0.000863696, No Iterations 2
GAMG:  Solving for p, Initial residual = 0.0251821, Final residual = 0.0020124, No Iterations 2
time step continuity errors : sum local = 4.82834e-06, global = -8.55278e-07, cumulative = 2.29285e-06
smoothSolver:  Solving for omega, Initial residual = 0.00015659, Final residual = 2.57861e-06, No Iterations 2
smoothSolver:  Solving for k, Initial residual = 0.015512, Final residual = 0.000305072, No Iterations 2
ExecutionTime = 14.9 s  ClockTime = 15 s

forces forcesFish write:
    Sum of forces
        Total    : (0.0379199 0.000671419 -0.00025757)
        Pressure : (0.0106875 0.00072436 -0.000253252)
        Viscous  : (0.0272324 -5.29419e-05 -4.31758e-06)
    Sum of moments
        Total    : (-7.31019e-07 3.95927e-05 1.11764e-05)
        Pressure : (-7.60133e-07 3.92045e-05 1.04475e-05)
        Viscous  : (2.91138e-08 3.88218e-07 7.28847e-07)
    writing force and moment files.

Time = 21

smoothSolver:  Solving for Ux, Initial residual = 0.000180341, Final residual = 7.48367e-06, No Iterations 2
smoothSolver:  Solving for Uy, Initial residual = 0.00380126, Final residual = 0.000187666, No Iterations 2
smoothSolver:  Solving for Uz, Initial residual = 0.0197289, Final residual = 0.00116547, No Iterations 2
GAMG:  Solving for p, Initial residual = 0.0199266, Final residual = 0.00136021, No Iterations 2
time step continuity errors : sum local = 3.53731e-06, global = -9.48572e-07, cumulative = 1.34428e-06
smoothSolver:  Solving for omega, Initial residual = 0.000138267, Final residual = 2.30753e-06, No Iterations 2
smoothSolver:  Solving for k, Initial residual = 0.0143417, Final residual = 0.000283732, No Iterations 2
ExecutionTime = 15.47 s  ClockTime = 15 s

forces forcesFish write:
    Sum of forces
        Total    : (0.0350248 0.000336466 3.37475e-05)
        Pressure : (0.00797479 0.000388205 3.74266e-05)
        Viscous  : (0.02705 -5.17393e-05 -3.67916e-06)
    Sum of moments
        Total    : (-1.30256e-06 -8.1884e-06 -5.96945e-05)
        Pressure : (-1.33234e-06 -8.46379e-06 -6.07194e-05)
        Viscous  : (2.9783e-08 2.75392e-07 1.02486e-06)
    writing force and moment files.

Time = 22

smoothSolver:  Solving for Ux, Initial residual = 0.000172655, Final residual = 6.92518e-06, No Iterations 2
smoothSolver:  Solving for Uy, Initial residual = 0.00384463, Final residual = 0.000214426, No Iterations 2
smoothSolver:  Solving for Uz, Initial residual = 0.0201258, Final residual = 0.00130505, No Iterations 2
GAMG:  Solving for p, Initial residual = 0.0183851, Final residual = 0.00114612, No Iterations 2
time step continuity errors : sum local = 3.09639e-06, global = -9.98245e-07, cumulative = 3.46031e-07
smoothSolver:  Solving for omega, Initial residual = 0.00012248, Final residual = 2.07148e-06, No Iterations 2
smoothSolver:  Solving for k, Initial residual = 0.0132806, Final residual = 0.000263863, No Iterations 2
ExecutionTime = 16.06 s  ClockTime = 16 s

forces forcesFish write:
    Sum of forces
        Total    : (0.0341189 0.000223037 0.000274058)
        Pressure : (0.00723992 0.000272912 0.000277141)
        Viscous  : (0.026879 -4.98753e-05 -3.08224e-06)
    Sum of moments
        Total    : (-1.47584e-06 -4.95138e-05 -6.10219e-05)
        Pressure : (-1.50859e-06 -4.96764e-05 -6.25172e-05)
        Viscous  : (3.27525e-08 1.62607e-07 1.49537e-06)
    writing force and moment files.

Time = 23

smoothSolver:  Solving for Ux, Initial residual = 0.000172589, Final residual = 6.60028e-06, No Iterations 2
smoothSolver:  Solving for Uy, Initial residual = 0.00366008, Final residual = 0.000208962, No Iterations 2
smoothSolver:  Solving for Uz, Initial residual = 0.0185925, Final residual = 0.00122917, No Iterations 2
GAMG:  Solving for p, Initial residual = 0.0185586, Final residual = 0.00112294, No Iterations 2
time step continuity errors : sum local = 3.04398e-06, global = -9.16042e-07, cumulative = -5.70011e-07
smoothSolver:  Solving for omega, Initial residual = 0.000108784, Final residual = 1.86294e-06, No Iterations 2
smoothSolver:  Solving for k, Initial residual = 0.0123198, Final residual = 0.000245427, No Iterations 2
ExecutionTime = 16.62 s  ClockTime = 16 s

forces forcesFish write:
    Sum of forces
        Total    : (0.0345136 0.000276732 0.000453117)
        Pressure : (0.00779992 0.000324374 0.000455745)
        Viscous  : (0.0267137 -4.76421e-05 -2.62745e-06)
    Sum of moments
        Total    : (-1.27633e-06 -8.13744e-05 -1.56481e-05)
        Pressure : (-1.31367e-06 -8.14488e-05 -1.76642e-05)
        Viscous  : (3.73389e-08 7.43937e-08 2.01609e-06)
    writing force and moment files.

Time = 24

smoothSolver:  Solving for Ux, Initial residual = 0.000169622, Final residual = 6.22094e-06, No Iterations 2
smoothSolver:  Solving for Uy, Initial residual = 0.00327067, Final residual = 0.000174583, No Iterations 2
smoothSolver:  Solving for Uz, Initial residual = 0.015677, Final residual = 0.00099236, No Iterations 2
GAMG:  Solving for p, Initial residual = 0.0182576, Final residual = 0.00116285, No Iterations 2
time step continuity errors : sum local = 3.0802e-06, global = -7.53348e-07, cumulative = -1.32336e-06
smoothSolver:  Solving for omega, Initial residual = 9.68188e-05, Final residual = 1.67521e-06, No Iterations 2
smoothSolver:  Solving for k, Initial residual = 0.0114446, Final residual = 0.000228257, No Iterations 2
ExecutionTime = 17.19 s  ClockTime = 17 s

forces forcesFish write:
    Sum of forces
        Total    : (0.0356389 0.000446053 0.000532228)
        Pressure : (0.00908808 0.000491274 0.000534578)
        Viscous  : (0.0265508 -4.52212e-05 -2.34943e-06)
    Sum of moments
        Total    : (-8.00773e-07 -9.57381e-05 5.45626e-05)
        Pressure : (-8.43073e-07 -9.57594e-05 5.20644e-05)
        Viscous  : (4.23e-08 2.13137e-08 2.49822e-06)
    writing force and moment files.

Time = 25

smoothSolver:  Solving for Ux, Initial residual = 0.000163237, Final residual = 5.79795e-06, No Iterations 2
smoothSolver:  Solving for Uy, Initial residual = 0.00278332, Final residual = 0.000125672, No Iterations 2
smoothSolver:  Solving for Uz, Initial residual = 0.0121904, Final residual = 0.00067193, No Iterations 2
GAMG:  Solving for p, Initial residual = 0.0172211, Final residual = 0.001113, No Iterations 2
time step continuity errors : sum local = 2.82484e-06, global = -5.50938e-07, cumulative = -1.8743e-06
smoothSolver:  Solving for omega, Initial residual = 8.63051e-05, Final residual = 1.50592e-06, No Iterations 2
smoothSolver:  Solving for k, Initial residual = 0.0106342, Final residual = 0.000212039, No Iterations 2
ExecutionTime = 17.77 s  ClockTime = 18 s

forces forcesFish write:
    Sum of forces
        Total    : (0.0369429 0.000667319 0.00049913)
        Pressure : (0.0105533 0.000710123 0.000501417)
        Viscous  : (0.0263897 -4.28039e-05 -2.2872e-06)
    Sum of moments
        Total    : (-2.30224e-07 -8.94885e-05 0.000127644)
        Pressure : (-2.76904e-07 -8.95071e-05 0.000124737)
        Viscous  : (4.66802e-08 1.86667e-08 2.90715e-06)
    writing force and moment files.

Time = 26

smoothSolver:  Solving for Ux, Initial residual = 0.000155756, Final residual = 5.40034e-06, No Iterations 2
smoothSolver:  Solving for Uy, Initial residual = 0.00251441, Final residual = 0.000100805, No Iterations 2
smoothSolver:  Solving for Uz, Initial residual = 0.00946104, Final residual = 0.000421845, No Iterations 2
GAMG:  Solving for p, Initial residual = 0.0157128, Final residual = 0.000953283, No Iterations 2
time step continuity errors : sum local = 2.30012e-06, global = -3.32797e-07, cumulative = -2.20709e-06
smoothSolver:  Solving for omega, Initial residual = 7.70048e-05, Final residual = 1.35306e-06, No Iterations 2
smoothSolver:  Solving for k, Initial residual = 0.00988993, Final residual = 0.000196886, No Iterations 2
ExecutionTime = 18.4 s  ClockTime = 18 s

forces forcesFish write:
    Sum of forces
        Total    : (0.0380176 0.000882511 0.000375042)
        Pressure : (0.0117866 0.000923083 0.00037742)
        Viscous  : (0.026231 -4.05726e-05 -2.37769e-06)
    Sum of moments
        Total    : (2.7227e-07 -6.59527e-05 0.000187257)
        Pressure : (2.22754e-07 -6.60063e-05 0.000184037)
        Viscous  : (4.95162e-08 5.3646e-08 3.21989e-06)
    writing force and moment files.

Time = 27

smoothSolver:  Solving for Ux, Initial residual = 0.000147919, Final residual = 5.05403e-06, No Iterations 2
smoothSolver:  Solving for Uy, Initial residual = 0.00246613, Final residual = 0.000103561, No Iterations 2
smoothSolver:  Solving for Uz, Initial residual = 0.00863852, Final residual = 0.000365177, No Iterations 2
GAMG:  Solving for p, Initial residual = 0.0139707, Final residual = 0.000769285, No Iterations 2
time step continuity errors : sum local = 1.77357e-06, global = -1.23551e-07, cumulative = -2.33064e-06
smoothSolver:  Solving for omega, Initial residual = 6.87358e-05, Final residual = 1.21504e-06, No Iterations 2
smoothSolver:  Solving for k, Initial residual = 0.00919976, Final residual = 0.000182626, No Iterations 2
ExecutionTime = 18.98 s  ClockTime = 19 s

forces forcesFish write:
    Sum of forces
        Total    : (0.0386442 0.00104974 0.000204715)
        Pressure : (0.0125681 0.00108833 0.000207297)
        Viscous  : (0.0260761 -3.85941e-05 -2.58178e-06)
    Sum of moments
        Total    : (6.06709e-07 -3.32897e-05 0.000224588)
        Pressure : (5.55887e-07 -3.34008e-05 0.000221144)
        Viscous  : (5.08221e-08 1.11081e-07 3.44405e-06)
    writing force and moment files.

Time = 28

smoothSolver:  Solving for Ux, Initial residual = 0.000139619, Final residual = 4.72694e-06, No Iterations 2
smoothSolver:  Solving for Uy, Initial residual = 0.00244857, Final residual = 0.00011019, No Iterations 2
smoothSolver:  Solving for Uz, Initial residual = 0.00888719, Final residual = 0.000409484, No Iterations 2
GAMG:  Solving for p, Initial residual = 0.012635, Final residual = 0.000756643, No Iterations 2
time step continuity errors : sum local = 1.69351e-06, global = 1.03123e-07, cumulative = -2.22752e-06
smoothSolver:  Solving for omega, Initial residual = 6.13536e-05, Final residual = 1.09026e-06, No Iterations 2
smoothSolver:  Solving for k, Initial residual = 0.00855669, Final residual = 0.000169172, No Iterations 2
ExecutionTime = 19.55 s  ClockTime = 19 s

forces forcesFish write:
    Sum of forces
        Total    : (0.0387809 0.00114735 4.55069e-05)
        Pressure : (0.0128545 0.00118421 4.83416e-05)
        Viscous  : (0.0259264 -3.68591e-05 -2.83469e-06)
    Sum of moments
        Total    : (7.61869e-07 -2.50544e-06 0.000238331)
        Pressure : (7.1142e-07 -2.68472e-06 0.000234729)
        Viscous  : (5.04486e-08 1.79276e-07 3.60277e-06)
    writing force and moment files.

Time = 29

smoothSolver:  Solving for Ux, Initial residual = 0.000132364, Final residual = 4.43057e-06, No Iterations 2
smoothSolver:  Solving for Uy, Initial residual = 0.00233201, Final residual = 0.000106342, No Iterations 2
smoothSolver:  Solving for Uz, Initial residual = 0.00872686, Final residual = 0.000407834, No Iterations 2
GAMG:  Solving for p, Initial residual = 0.0119052, Final residual = 0.000845942, No Iterations 2
time step continuity errors : sum local = 1.87528e-06, global = 2.9499e-07, cumulative = -1.93253e-06
smoothSolver:  Solving for omega, Initial residual = 5.47327e-05, Final residual = 9.76753e-07, No Iterations 2
smoothSolver:  Solving for k, Initial residual = 0.00796037, Final residual = 0.000156557, No Iterations 2
ExecutionTime = 20.11 s  ClockTime = 20 s

forces forcesFish write:
    Sum of forces
        Total    : (0.0385593 0.00118556 -8.74707e-05)
        Pressure : (0.0127762 0.00122089 -8.43975e-05)
        Viscous  : (0.0257831 -3.53331e-05 -3.07322e-06)
    Sum of moments
        Total    : (7.72104e-07 2.3292e-05 0.000234603)
        Pressure : (7.2324e-07 2.30481e-05 0.000230879)
        Viscous  : (4.88648e-08 2.4397e-07 3.7248e-06)
    writing force and moment files.

Time = 30

smoothSolver:  Solving for Ux, Initial residual = 0.00012409, Final residual = 4.15741e-06, No Iterations 2
smoothSolver:  Solving for Uy, Initial residual = 0.00211096, Final residual = 9.26792e-05, No Iterations 2
smoothSolver:  Solving for Uz, Initial residual = 0.00791802, Final residual = 0.00034616, No Iterations 2
GAMG:  Solving for p, Initial residual = 0.0112463, Final residual = 0.000760892, No Iterations 2
time step continuity errors : sum local = 1.69635e-06, global = 3.86993e-07, cumulative = -1.54554e-06
smoothSolver:  Solving for omega, Initial residual = 4.88079e-05, Final residual = 8.75464e-07, No Iterations 2
smoothSolver:  Solving for k, Initial residual = 0.00740234, Final residual = 0.000144643, No Iterations 2
ExecutionTime = 20.78 s  ClockTime = 21 s

forces forcesFish write:
    Sum of forces
        Total    : (0.0380994 0.00117269 -0.000193566)
        Pressure : (0.0124526 0.00120665 -0.000190307)
        Viscous  : (0.0256467 -3.39651e-05 -3.25912e-06)
    Sum of moments
        Total    : (6.31223e-07 4.35252e-05 0.000217659)
        Pressure : (5.84457e-07 4.32335e-05 0.000213832)
        Viscous  : (4.67667e-08 2.91673e-07 3.8265e-06)
    writing force and moment files.

Time = 31

smoothSolver:  Solving for Ux, Initial residual = 0.000114871, Final residual = 3.86203e-06, No Iterations 2
smoothSolver:  Solving for Uy, Initial residual = 0.00185111, Final residual = 7.30404e-05, No Iterations 2
smoothSolver:  Solving for Uz, Initial residual = 0.00680085, Final residual = 0.000252275, No Iterations 2
GAMG:  Solving for p, Initial residual = 0.0104153, Final residual = 0.000736627, No Iterations 2
time step continuity errors : sum local = 1.67231e-06, global = 4.24341e-07, cumulative = -1.1212e-06
smoothSolver:  Solving for omega, Initial residual = 4.3491e-05, Final residual = 7.84428e-07, No Iterations 2
smoothSolver:  Solving for k, Initial residual = 0.00688082, Final residual = 0.000133412, No Iterations 2
ExecutionTime = 21.32 s  ClockTime = 21 s

forces forcesFish write:
    Sum of forces
        Total    : (0.0375183 0.00111933 -0.000243521)
        Pressure : (0.0120007 0.00115203 -0.000240134)
        Viscous  : (0.0255177 -3.26985e-05 -3.38652e-06)
    Sum of moments
        Total    : (4.01668e-07 5.22482e-05 0.000193202)
        Pressure : (3.57055e-07 5.19246e-05 0.000189285)
        Viscous  : (4.46126e-08 3.23625e-07 3.91757e-06)
    writing force and moment files.

Time = 32

smoothSolver:  Solving for Ux, Initial residual = 0.000104454, Final residual = 3.52402e-06, No Iterations 2
smoothSolver:  Solving for Uy, Initial residual = 0.00160061, Final residual = 5.46751e-05, No Iterations 2
smoothSolver:  Solving for Uz, Initial residual = 0.00598354, Final residual = 0.000196014, No Iterations 2
GAMG:  Solving for p, Initial residual = 0.00937974, Final residual = 0.000665951, No Iterations 2
time step continuity errors : sum local = 1.55022e-06, global = 4.13216e-07, cumulative = -7.0798e-07
smoothSolver:  Solving for omega, Initial residual = 3.8709e-05, Final residual = 7.02278e-07, No Iterations 2
smoothSolver:  Solving for k, Initial residual = 0.00639397, Final residual = 0.000122841, No Iterations 2
ExecutionTime = 21.87 s  ClockTime = 22 s

forces forcesFish write:
    Sum of forces
        Total    : (0.0369272 0.0010441 -0.000231396)
        Pressure : (0.011532 0.0010756 -0.000227942)
        Viscous  : (0.0253952 -3.15007e-05 -3.45481e-06)
    Sum of moments
        Total    : (1.57744e-07 4.8259e-05 0.000167443)
        Pressure : (1.14861e-07 4.79174e-05 0.00016344)
        Viscous  : (4.28831e-08 3.41541e-07 4.00295e-06)
    writing force and moment files.

Time = 33

smoothSolver:  Solving for Ux, Initial residual = 9.26202e-05, Final residual = 3.16703e-06, No Iterations 2
smoothSolver:  Solving for Uy, Initial residual = 0.00140416, Final residual = 4.38543e-05, No Iterations 2
smoothSolver:  Solving for Uz, Initial residual = 0.00555038, Final residual = 0.000193672, No Iterations 2
GAMG:  Solving for p, Initial residual = 0.00831268, Final residual = 0.000548983, No Iterations 2
time step continuity errors : sum local = 1.31049e-06, global = 3.65633e-07, cumulative = -3.42347e-07
smoothSolver:  Solving for omega, Initial residual = 3.44005e-05, Final residual = 6.2795e-07, No Iterations 2
smoothSolver:  Solving for k, Initial residual = 0.00593465, Final residual = 0.000112801, No Iterations 2
ExecutionTime = 22.41 s  ClockTime = 22 s

forces forcesFish write:
    Sum of forces
        Total    : (0.0364018 0.000965872 -0.000170505)
        Pressure : (0.0111234 0.00099621 -0.000167049)
        Viscous  : (0.0252785 -3.03378e-05 -3.45626e-06)
    Sum of moments
        Total    : (-4.46723e-08 3.43176e-05 0.000145188)
        Pressure : (-8.64678e-08 3.39775e-05 0.000141094)
        Viscous  : (4.17954e-08 3.40156e-07 4.09387e-06)
    writing force and moment files.

Time = 34

smoothSolver:  Solving for Ux, Initial residual = 8.09353e-05, Final residual = 2.8288e-06, No Iterations 2
smoothSolver:  Solving for Uy, Initial residual = 0.00128236, Final residual = 4.14931e-05, No Iterations 2
smoothSolver:  Solving for Uz, Initial residual = 0.00523184, Final residual = 0.000209808, No Iterations 2
GAMG:  Solving for p, Initial residual = 0.00740903, Final residual = 0.000428075, No Iterations 2
time step continuity errors : sum local = 1.04237e-06, global = 3.05299e-07, cumulative = -3.70485e-08
smoothSolver:  Solving for omega, Initial residual = 3.05129e-05, Final residual = 5.60542e-07, No Iterations 2
smoothSolver:  Solving for k, Initial residual = 0.00550365, Final residual = 0.000103316, No Iterations 2
ExecutionTime = 22.97 s  ClockTime = 23 s

forces forcesFish write:
    Sum of forces
        Total    : (0.0359794 0.000899357 -8.52366e-05)
        Pressure : (0.010813 0.000928548 -8.18378e-05)
        Viscous  : (0.0251665 -2.91912e-05 -3.39882e-06)
    Sum of moments
        Total    : (-1.7766e-07 1.55469e-05 0.000129181)
        Pressure : (-2.19164e-07 1.52264e-05 0.00012499)
        Viscous  : (4.1504e-08 3.20489e-07 4.19116e-06)
    writing force and moment files.

Time = 35

smoothSolver:  Solving for Ux, Initial residual = 7.25509e-05, Final residual = 2.5566e-06, No Iterations 2
smoothSolver:  Solving for Uy, Initial residual = 0.00119961, Final residual = 4.20274e-05, No Iterations 2
smoothSolver:  Solving for Uz, Initial residual = 0.00486898, Final residual = 0.000212861, No Iterations 2
GAMG:  Solving for p, Initial residual = 0.00676218, Final residual = 0.000358582, No Iterations 2
time step continuity errors : sum local = 8.83528e-07, global = 2.44047e-07, cumulative = 2.06998e-07
smoothSolver:  Solving for omega, Initial residual = 2.70031e-05, Final residual = 4.99444e-07, No Iterations 2
smoothSolver:  Solving for k, Initial residual = 0.00509685, Final residual = 9.43185e-05, No Iterations 2
ExecutionTime = 23.52 s  ClockTime = 23 s

forces forcesFish write:
    Sum of forces
        Total    : (0.0356627 0.000851818 -4.50021e-07)
        Pressure : (0.0106042 0.000879869 2.8637e-06)
        Viscous  : (0.0250585 -2.80508e-05 -3.31372e-06)
    Sum of moments
        Total    : (-2.4134e-07 -2.7965e-06 0.000119873)
        Pressure : (-2.83143e-07 -3.08828e-06 0.000115581)
        Viscous  : (4.18031e-08 2.91784e-07 4.29124e-06)
    writing force and moment files.

Time = 36

smoothSolver:  Solving for Ux, Initial residual = 6.80964e-05, Final residual = 2.36583e-06, No Iterations 2
smoothSolver:  Solving for Uy, Initial residual = 0.0011325, Final residual = 4.1103e-05, No Iterations 2
smoothSolver:  Solving for Uz, Initial residual = 0.00447764, Final residual = 0.000198378, No Iterations 2
GAMG:  Solving for p, Initial residual = 0.00632572, Final residual = 0.000348829, No Iterations 2
time step continuity errors : sum local = 8.62862e-07, global = 1.64316e-07, cumulative = 3.71314e-07
smoothSolver:  Solving for omega, Initial residual = 2.38332e-05, Final residual = 4.44066e-07, No Iterations 2
smoothSolver:  Solving for k, Initial residual = 0.00471094, Final residual = 8.57596e-05, No Iterations 2
ExecutionTime = 24.07 s  ClockTime = 24 s

forces forcesFish write:
    Sum of forces
        Total    : (0.035425 0.000822575 7.01474e-05)
        Pressure : (0.010471 0.000849496 7.33741e-05)
        Viscous  : (0.024954 -2.69206e-05 -3.22669e-06)
    Sum of moments
        Total    : (-2.48606e-07 -1.78078e-05 0.000115847)
        Pressure : (-2.9102e-07 -1.80698e-05 0.00011146)
        Viscous  : (4.24137e-08 2.61969e-07 4.38721e-06)
    writing force and moment files.

Time = 37

smoothSolver:  Solving for Ux, Initial residual = 6.44793e-05, Final residual = 2.20542e-06, No Iterations 2
smoothSolver:  Solving for Uy, Initial residual = 0.0010662, Final residual = 3.86753e-05, No Iterations 2
smoothSolver:  Solving for Uz, Initial residual = 0.0040139, Final residual = 0.000170309, No Iterations 2
GAMG:  Solving for p, Initial residual = 0.00594795, Final residual = 0.000352695, No Iterations 2
time step continuity errors : sum local = 8.70883e-07, global = 8.38983e-08, cumulative = 4.55213e-07
smoothSolver:  Solving for omega, Initial residual = 2.09662e-05, Final residual = 3.93705e-07, No Iterations 2
smoothSolver:  Solving for k, Initial residual = 0.0043454, Final residual = 7.76476e-05, No Iterations 2
ExecutionTime = 24.62 s  ClockTime = 24 s

forces forcesFish write:
    Sum of forces
        Total    : (0.0352374 0.000808982 0.00011847)
        Pressure : (0.0103849 0.000834796 0.000121617)
        Viscous  : (0.0248525 -2.58139e-05 -3.14719e-06)
    Sum of moments
        Total    : (-2.12367e-07 -2.77144e-05 0.000115486)
        Pressure : (-2.55395e-07 -2.79481e-05 0.000111011)
        Viscous  : (4.30278e-08 2.33703e-07 4.47485e-06)
    writing force and moment files.

Time = 38

smoothSolver:  Solving for Ux, Initial residual = 6.05863e-05, Final residual = 2.05627e-06, No Iterations 2
smoothSolver:  Solving for Uy, Initial residual = 0.00100845, Final residual = 3.58107e-05, No Iterations 2
smoothSolver:  Solving for Uz, Initial residual = 0.00352885, Final residual = 0.000135829, No Iterations 2
GAMG:  Solving for p, Initial residual = 0.0055722, Final residual = 0.000368919, No Iterations 2
time step continuity errors : sum local = 9.06086e-07, global = 2.23616e-08, cumulative = 4.77574e-07
smoothSolver:  Solving for omega, Initial residual = 1.8374e-05, Final residual = 3.48035e-07, No Iterations 2
smoothSolver:  Solving for k, Initial residual = 0.00399554, Final residual = 6.992e-05, No Iterations 2
ExecutionTime = 25.17 s  ClockTime = 25 s

forces forcesFish write:
    Sum of forces
        Total    : (0.0350797 0.000807236 0.000139328)
        Pressure : (0.0103259 0.000831985 0.000142414)
        Viscous  : (0.0247538 -2.47494e-05 -3.0861e-06)
    Sum of moments
        Total    : (-1.48898e-07 -3.14053e-05 0.000117197)
        Pressure : (-1.92314e-07 -3.16166e-05 0.000112648)
        Viscous  : (4.34164e-08 2.11323e-07 4.54894e-06)
    writing force and moment files.

Time = 39

smoothSolver:  Solving for Ux, Initial residual = 5.63493e-05, Final residual = 1.90923e-06, No Iterations 2
smoothSolver:  Solving for Uy, Initial residual = 0.000961083, Final residual = 3.32801e-05, No Iterations 2
smoothSolver:  Solving for Uz, Initial residual = 0.00311859, Final residual = 0.000107092, No Iterations 2
GAMG:  Solving for p, Initial residual = 0.00521192, Final residual = 0.000360484, No Iterations 2
time step continuity errors : sum local = 8.79314e-07, global = -1.77545e-08, cumulative = 4.5982e-07
smoothSolver:  Solving for omega, Initial residual = 1.60357e-05, Final residual = 3.06895e-07, No Iterations 2
smoothSolver:  Solving for k, Initial residual = 0.00366214, Final residual = 6.26158e-05, No Iterations 2
ExecutionTime = 25.72 s  ClockTime = 26 s

forces forcesFish write:
    Sum of forces
        Total    : (0.0349385 0.000812139 0.000133746)
        Pressure : (0.0102805 0.000835882 0.000136794)
        Viscous  : (0.024658 -2.37433e-05 -3.04759e-06)
    Sum of moments
        Total    : (-7.63147e-08 -2.91926e-05 0.000119437)
        Pressure : (-1.19803e-07 -2.93888e-05 0.00011483)
        Viscous  : (4.34881e-08 1.96242e-07 4.60735e-06)
    writing force and moment files.

Time = 40

smoothSolver:  Solving for Ux, Initial residual = 5.29569e-05, Final residual = 1.78003e-06, No Iterations 2
smoothSolver:  Solving for Uy, Initial residual = 0.000917773, Final residual = 3.10795e-05, No Iterations 2
smoothSolver:  Solving for Uz, Initial residual = 0.0028129, Final residual = 8.91538e-05, No Iterations 2
GAMG:  Solving for p, Initial residual = 0.00492491, Final residual = 0.000322668, No Iterations 2
time step continuity errors : sum local = 7.82222e-07, global = -4.84694e-08, cumulative = 4.1135e-07
smoothSolver:  Solving for omega, Initial residual = 1.39349e-05, Final residual = 2.701e-07, No Iterations 2
smoothSolver:  Solving for k, Initial residual = 0.00334203, Final residual = 5.57073e-05, No Iterations 2
ExecutionTime = 26.27 s  ClockTime = 26 s

forces forcesFish write:
    Sum of forces
        Total    : (0.034806 0.00081841 0.000108474)
        Pressure : (0.0102409 0.000841217 0.000111497)
        Viscous  : (0.0245651 -2.28074e-05 -3.02313e-06)
    Sum of moments
        Total    : (-1.03465e-08 -2.26891e-05 0.000120985)
        Pressure : (-5.3548e-08 -2.28746e-05 0.000116336)
        Viscous  : (4.32015e-08 1.85485e-07 4.64825e-06)
    writing force and moment files.

Time = 41

smoothSolver:  Solving for Ux, Initial residual = 5.02993e-05, Final residual = 1.67027e-06, No Iterations 2
smoothSolver:  Solving for Uy, Initial residual = 0.000879793, Final residual = 2.90424e-05, No Iterations 2
smoothSolver:  Solving for Uz, Initial residual = 0.00261671, Final residual = 7.96395e-05, No Iterations 2
GAMG:  Solving for p, Initial residual = 0.0046715, Final residual = 0.000269541, No Iterations 2
time step continuity errors : sum local = 6.50992e-07, global = -7.11633e-08, cumulative = 3.40187e-07
smoothSolver:  Solving for omega, Initial residual = 1.20549e-05, Final residual = 2.3744e-07, No Iterations 2
smoothSolver:  Solving for k, Initial residual = 0.00303572, Final residual = 4.92305e-05, No Iterations 2
ExecutionTime = 26.86 s  ClockTime = 27 s

forces forcesFish write:
    Sum of forces
        Total    : (0.0346785 0.000821881 7.33972e-05)
        Pressure : (0.0102034 0.00084383 7.64034e-05)
        Viscous  : (0.024475 -2.19493e-05 -3.00615e-06)
    Sum of moments
        Total    : (3.87506e-08 -1.42121e-05 0.000121112)
        Pressure : (-3.81735e-09 -1.43895e-05 0.00011644)
        Viscous  : (4.2568e-08 1.774e-07 4.67143e-06)
    writing force and moment files.

Time = 42

smoothSolver:  Solving for Ux, Initial residual = 4.88631e-05, Final residual = 1.58134e-06, No Iterations 2
smoothSolver:  Solving for Uy, Initial residual = 0.000843994, Final residual = 2.68205e-05, No Iterations 2
smoothSolver:  Solving for Uz, Initial residual = 0.00249648, Final residual = 7.41871e-05, No Iterations 2
GAMG:  Solving for p, Initial residual = 0.00443116, Final residual = 0.000221235, No Iterations 2
time step continuity errors : sum local = 5.34056e-07, global = -9.19213e-08, cumulative = 2.48266e-07
smoothSolver:  Solving for omega, Initial residual = 1.03827e-05, Final residual = 2.0863e-07, No Iterations 2
smoothSolver:  Solving for k, Initial residual = 0.00274174, Final residual = 4.31852e-05, No Iterations 2
ExecutionTime = 27.41 s  ClockTime = 27 s

forces forcesFish write:
    Sum of forces
        Total    : (0.0345545 0.000820322 3.85737e-05)
        Pressure : (0.0101664 0.000841491 4.15647e-05)
        Viscous  : (0.0243881 -2.11699e-05 -2.99096e-06)
    Sum of moments
        Total    : (6.79216e-08 -6.07391e-06 0.000119646)
        Pressure : (2.6225e-08 -6.24442e-06 0.000114968)
        Viscous  : (4.16966e-08 1.70504e-07 4.67808e-06)
    writing force and moment files.

Time = 43

smoothSolver:  Solving for Ux, Initial residual = 4.84169e-05, Final residual = 1.51071e-06, No Iterations 2
smoothSolver:  Solving for Uy, Initial residual = 0.000803037, Final residual = 2.4157e-05, No Iterations 2
smoothSolver:  Solving for Uz, Initial residual = 0.00240489, Final residual = 6.85844e-05, No Iterations 2
GAMG:  Solving for p, Initial residual = 0.00421709, Final residual = 0.000192017, No Iterations 2
time step continuity errors : sum local = 4.64728e-07, global = -9.52044e-08, cumulative = 1.53061e-07
smoothSolver:  Solving for omega, Initial residual = 8.90523e-06, Final residual = 1.83352e-07, No Iterations 2
smoothSolver:  Solving for k, Initial residual = 0.00246129, Final residual = 3.76091e-05, No Iterations 2
ExecutionTime = 27.97 s  ClockTime = 28 s

forces forcesFish write:
    Sum of forces
        Total    : (0.0344325 0.000813433 1.06865e-05)
        Pressure : (0.0101283 0.000833901 1.36565e-05)
        Viscous  : (0.0243041 -2.0468e-05 -2.97002e-06)
    Sum of moments
        Total    : (7.86078e-08 2.36187e-07 0.000116819)
        Pressure : (3.78923e-08 7.42289e-08 0.000112151)
        Viscous  : (4.07156e-08 1.61959e-07 4.66823e-06)
    writing force and moment files.

Time = 44

smoothSolver:  Solving for Ux, Initial residual = 4.80185e-05, Final residual = 1.44936e-06, No Iterations 2
smoothSolver:  Solving for Uy, Initial residual = 0.000754287, Final residual = 2.12917e-05, No Iterations 2
smoothSolver:  Solving for Uz, Initial residual = 0.00229534, Final residual = 6.27963e-05, No Iterations 2
GAMG:  Solving for p, Initial residual = 0.004014, Final residual = 0.000175585, No Iterations 2
time step continuity errors : sum local = 4.26967e-07, global = -9.61368e-08, cumulative = 5.69245e-08
smoothSolver:  Solving for omega, Initial residual = 7.61016e-06, Final residual = 1.61339e-07, No Iterations 2
smoothSolver:  Solving for k, Initial residual = 0.00219385, Final residual = 3.25032e-05, No Iterations 2
ExecutionTime = 28.52 s  ClockTime = 28 s

forces forcesFish write:
    Sum of forces
        Total    : (0.0343115 0.000801843 -7.59206e-06)
        Pressure : (0.0100883 0.000821684 -4.65036e-06)
        Viscous  : (0.0242232 -1.98411e-05 -2.9417e-06)
    Sum of moments
        Total    : (7.28553e-08 4.14772e-06 0.000112979)
        Pressure : (3.31326e-08 3.99663e-06 0.000108337)
        Viscous  : (3.97227e-08 1.51096e-07 4.64152e-06)
    writing force and moment files.

Time = 45

smoothSolver:  Solving for Ux, Initial residual = 4.70948e-05, Final residual = 1.38634e-06, No Iterations 2
smoothSolver:  Solving for Uy, Initial residual = 0.000704646, Final residual = 1.85807e-05, No Iterations 2
smoothSolver:  Solving for Uz, Initial residual = 0.00216983, Final residual = 5.81177e-05, No Iterations 2
GAMG:  Solving for p, Initial residual = 0.00380228, Final residual = 0.000165531, No Iterations 2
time step continuity errors : sum local = 4.04936e-07, global = -9.17634e-08, cumulative = -3.4839e-08
smoothSolver:  Solving for omega, Initial residual = 6.48497e-06, Final residual = 1.42285e-07, No Iterations 2
smoothSolver:  Solving for k, Initial residual = 0.00194133, Final residual = 2.78943e-05, No Iterations 2
ExecutionTime = 29.06 s  ClockTime = 29 s

forces forcesFish write:
    Sum of forces
        Total    : (0.0341916 0.000786738 -1.53586e-05)
        Pressure : (0.0100464 0.000806023 -1.24512e-05)
        Viscous  : (0.0241451 -1.92847e-05 -2.90744e-06)
    Sum of moments
        Total    : (5.3763e-08 5.49821e-06 0.000108531)
        Pressure : (1.49609e-08 5.35983e-06 0.000103932)
        Viscous  : (3.88021e-08 1.38373e-07 4.59856e-06)
    writing force and moment files.

Time = 46

smoothSolver:  Solving for Ux, Initial residual = 4.53823e-05, Final residual = 1.3157e-06, No Iterations 2
smoothSolver:  Solving for Uy, Initial residual = 0.000657022, Final residual = 1.63062e-05, No Iterations 2
smoothSolver:  Solving for Uz, Initial residual = 0.00202901, Final residual = 5.42168e-05, No Iterations 2
GAMG:  Solving for p, Initial residual = 0.00357861, Final residual = 0.000166816, No Iterations 2
time step continuity errors : sum local = 4.10683e-07, global = -8.55548e-08, cumulative = -1.20394e-07
smoothSolver:  Solving for omega, Initial residual = 5.51392e-06, Final residual = 1.25801e-07, No Iterations 2
smoothSolver:  Solving for k, Initial residual = 0.00170414, Final residual = 2.37745e-05, No Iterations 2
ExecutionTime = 29.62 s  ClockTime = 29 s

forces forcesFish write:
    Sum of forces
        Total    : (0.0340728 0.000769855 -1.30161e-05)
        Pressure : (0.0100029 0.000788648 -1.01492e-05)
        Viscous  : (0.0240699 -1.87928e-05 -2.86694e-06)
    Sum of moments
        Total    : (2.64288e-08 4.45431e-06 0.000103944)
        Pressure : (-1.15985e-08 4.33131e-06 9.94029e-05)
        Viscous  : (3.80273e-08 1.22997e-07 4.54062e-06)
    writing force and moment files.

Time = 47

smoothSolver:  Solving for Ux, Initial residual = 4.27201e-05, Final residual = 1.23418e-06, No Iterations 2
smoothSolver:  Solving for Uy, Initial residual = 0.000610852, Final residual = 1.46944e-05, No Iterations 2
smoothSolver:  Solving for Uz, Initial residual = 0.00187743, Final residual = 5.10173e-05, No Iterations 2
GAMG:  Solving for p, Initial residual = 0.00335435, Final residual = 0.000159301, No Iterations 2
time step continuity errors : sum local = 3.94514e-07, global = -7.67911e-08, cumulative = -1.97185e-07
smoothSolver:  Solving for omega, Initial residual = 4.68306e-06, Final residual = 1.11514e-07, No Iterations 2
smoothSolver:  Solving for k, Initial residual = 0.00148369, Final residual = 2.01386e-05, No Iterations 2
ExecutionTime = 30.19 s  ClockTime = 30 s

forces forcesFish write:
    Sum of forces
        Total    : (0.0339556 0.000753428 -2.68975e-06)
        Pressure : (0.00995817 0.000771786 1.31687e-07)
        Viscous  : (0.0239974 -1.83584e-05 -2.82144e-06)
    Sum of moments
        Total    : (-2.08103e-09 1.61231e-06 9.97414e-05)
        Pressure : (-3.94898e-08 1.50715e-06 9.52719e-05)
        Viscous  : (3.74087e-08 1.0516e-07 4.46952e-06)
    writing force and moment files.

Time = 48

smoothSolver:  Solving for Ux, Initial residual = 3.94859e-05, Final residual = 1.14669e-06, No Iterations 2
smoothSolver:  Solving for Uy, Initial residual = 0.000570002, Final residual = 1.37347e-05, No Iterations 2
smoothSolver:  Solving for Uz, Initial residual = 0.00173176, Final residual = 4.80909e-05, No Iterations 2
GAMG:  Solving for p, Initial residual = 0.00313134, Final residual = 0.000150265, No Iterations 2
time step continuity errors : sum local = 3.73998e-07, global = -6.3809e-08, cumulative = -2.60994e-07
smoothSolver:  Solving for omega, Initial residual = 3.97876e-06, Final residual = 9.91074e-08, No Iterations 2
smoothSolver:  Solving for k, Initial residual = 0.00128111, Final residual = 1.69679e-05, No Iterations 2
ExecutionTime = 30.75 s  ClockTime = 31 s

forces forcesFish write:
    Sum of forces
        Total    : (0.0338412 0.000739592 1.15242e-05)
        Pressure : (0.00991369 0.000757567 1.42976e-05)
        Viscous  : (0.0239275 -1.79745e-05 -2.77344e-06)
    Sum of moments
        Total    : (-2.45846e-08 -1.9892e-06 9.63724e-05)
        Pressure : (-6.15272e-08 -2.07479e-06 9.19859e-05)
        Viscous  : (3.69427e-08 8.55883e-08 4.38649e-06)
    writing force and moment files.

Time = 49

smoothSolver:  Solving for Ux, Initial residual = 3.6449e-05, Final residual = 1.06765e-06, No Iterations 2
smoothSolver:  Solving for Uy, Initial residual = 0.000535469, Final residual = 1.30773e-05, No Iterations 2
smoothSolver:  Solving for Uz, Initial residual = 0.00160772, Final residual = 4.53713e-05, No Iterations 2
GAMG:  Solving for p, Initial residual = 0.00292164, Final residual = 0.000141094, No Iterations 2
time step continuity errors : sum local = 3.526e-07, global = -4.79935e-08, cumulative = -3.08987e-07
smoothSolver:  Solving for omega, Initial residual = 3.38671e-06, Final residual = 8.83244e-08, No Iterations 2
smoothSolver:  Solving for k, Initial residual = 0.00109675, Final residual = 1.42278e-05, No Iterations 2
ExecutionTime = 31.3 s  ClockTime = 31 s

forces forcesFish write:
    Sum of forces
        Total    : (0.0337313 0.000729278 2.53762e-05)
        Pressure : (0.00987126 0.000746908 2.81013e-05)
        Viscous  : (0.02386 -1.76304e-05 -2.72514e-06)
    Sum of moments
        Total    : (-3.7645e-08 -5.33808e-06 9.39729e-05)
        Pressure : (-7.4243e-08 -5.40314e-06 8.96777e-05)
        Viscous  : (3.6598e-08 6.50578e-08 4.29522e-06)
    writing force and moment files.

Time = 50

smoothSolver:  Solving for Ux, Initial residual = 3.44888e-05, Final residual = 1.00761e-06, No Iterations 2
smoothSolver:  Solving for Uy, Initial residual = 0.000508661, Final residual = 1.24984e-05, No Iterations 2
smoothSolver:  Solving for Uz, Initial residual = 0.00151382, Final residual = 4.26006e-05, No Iterations 2
GAMG:  Solving for p, Initial residual = 0.00272522, Final residual = 0.000128642, No Iterations 2
time step continuity errors : sum local = 3.22575e-07, global = -3.07296e-08, cumulative = -3.39717e-07
smoothSolver:  Solving for omega, Initial residual = 2.89255e-06, Final residual = 7.89004e-08, No Iterations 2
smoothSolver:  Solving for k, Initial residual = 0.000931224, Final residual = 1.18848e-05, No Iterations 2
ExecutionTime = 31.87 s  ClockTime = 32 s

forces forcesFish write:
    Sum of forces
        Total    : (0.0336268 0.000722202 3.64346e-05)
        Pressure : (0.0098318 0.000739521 3.91123e-05)
        Viscous  : (0.023795 -1.73197e-05 -2.67771e-06)
    Sum of moments
        Total    : (-4.14748e-08 -7.88474e-06 9.23959e-05)
        Pressure : (-7.78244e-08 -7.92874e-06 8.81982e-05)
        Viscous  : (3.63496e-08 4.39999e-08 4.19762e-06)
    writing force and moment files.

Time = 51

smoothSolver:  Solving for Ux, Initial residual = 3.30654e-05, Final residual = 9.58717e-07, No Iterations 2
smoothSolver:  Solving for Uy, Initial residual = 0.000487977, Final residual = 1.18442e-05, No Iterations 2
smoothSolver:  Solving for Uz, Initial residual = 0.00144234, Final residual = 3.98772e-05, No Iterations 2
GAMG:  Solving for p, Initial residual = 0.0025496, Final residual = 0.000114223, No Iterations 2
time step continuity errors : sum local = 2.87259e-07, global = -1.22019e-08, cumulative = -3.51919e-07
smoothSolver:  Solving for omega, Initial residual = 2.4816e-06, Final residual = 7.05925e-08, No Iterations 2
smoothSolver:  Solving for k, Initial residual = 0.000784448, Final residual = 9.89804e-06, No Iterations 2
ExecutionTime = 32.43 s  ClockTime = 32 s

forces forcesFish write:
    Sum of forces
        Total    : (0.0335277 0.000717632 4.39072e-05)
        Pressure : (0.00979549 0.00073467 4.65386e-05)
        Viscous  : (0.0237322 -1.70377e-05 -2.63138e-06)
    Sum of moments
        Total    : (-3.76001e-08 -9.47187e-06 9.14102e-05)
        Pressure : (-7.3758e-08 -9.4947e-06 8.73147e-05)
        Viscous  : (3.61579e-08 2.2823e-08 4.09548e-06)
    writing force and moment files.

Time = 52

smoothSolver:  Solving for Ux, Initial residual = 3.1709e-05, Final residual = 9.13898e-07, No Iterations 2
smoothSolver:  Solving for Uy, Initial residual = 0.000470758, Final residual = 1.12067e-05, No Iterations 2
smoothSolver:  Solving for Uz, Initial residual = 0.00137734, Final residual = 3.7111e-05, No Iterations 2
GAMG:  Solving for p, Initial residual = 0.00239888, Final residual = 0.000104268, No Iterations 2
time step continuity errors : sum local = 2.62908e-07, global = 1.082e-08, cumulative = -3.41099e-07
smoothSolver:  Solving for omega, Initial residual = 2.14091e-06, Final residual = 6.32292e-08, No Iterations 2
smoothSolver:  Solving for k, Initial residual = 0.000655841, Final residual = 8.22438e-06, No Iterations 2
ExecutionTime = 32.98 s  ClockTime = 33 s

forces forcesFish write:
    Sum of forces
        Total    : (0.0334343 0.000714814 4.78424e-05)
        Pressure : (0.00976246 0.000731593 5.04279e-05)
        Viscous  : (0.0236718 -1.67794e-05 -2.58548e-06)
    Sum of moments
        Total    : (-2.80865e-08 -1.01468e-05 9.08047e-05)
        Pressure : (-6.40691e-08 -1.01483e-05 8.68137e-05)
        Viscous  : (3.59827e-08 1.51229e-09 3.99098e-06)
    writing force and moment files.

Time = 53

smoothSolver:  Solving for Ux, Initial residual = 3.03322e-05, Final residual = 8.7009e-07, No Iterations 2
smoothSolver:  Solving for Uy, Initial residual = 0.000456586, Final residual = 1.06776e-05, No Iterations 2
smoothSolver:  Solving for Uz, Initial residual = 0.00130972, Final residual = 3.44754e-05, No Iterations 2
GAMG:  Solving for p, Initial residual = 0.00226519, Final residual = 9.89173e-05, No Iterations 2
time step continuity errors : sum local = 2.50002e-07, global = 3.28787e-08, cumulative = -3.0822e-07
smoothSolver:  Solving for omega, Initial residual = 1.8586e-06, Final residual = 5.66748e-08, No Iterations 2
smoothSolver:  Solving for k, Initial residual = 0.000544435, Final residual = 6.82162e-06, No Iterations 2
ExecutionTime = 33.54 s  ClockTime = 33 s

forces forcesFish write:
    Sum of forces
        Total    : (0.0333465 0.000713066 4.88028e-05)
        Pressure : (0.00973283 0.000729606 5.13418e-05)
        Viscous  : (0.0236137 -1.65402e-05 -2.53904e-06)
    Sum of moments
        Total    : (-1.53624e-08 -1.00832e-05 9.04081e-05)
        Pressure : (-5.11658e-08 -1.00632e-05 8.65224e-05)
        Viscous  : (3.58034e-08 -1.99891e-08 3.88572e-06)
    writing force and moment files.

Time = 54

smoothSolver:  Solving for Ux, Initial residual = 2.86777e-05, Final residual = 8.23851e-07, No Iterations 2
smoothSolver:  Solving for Uy, Initial residual = 0.000442309, Final residual = 1.02543e-05, No Iterations 2
smoothSolver:  Solving for Uz, Initial residual = 0.00124419, Final residual = 3.21802e-05, No Iterations 2
GAMG:  Solving for p, Initial residual = 0.00214479, Final residual = 9.49918e-05, No Iterations 2
time step continuity errors : sum local = 2.40621e-07, global = 5.19377e-08, cumulative = -2.56282e-07
smoothSolver:  Solving for omega, Initial residual = 1.62453e-06, Final residual = 5.08259e-08, No Iterations 2
smoothSolver:  Solving for k, Initial residual = 0.000449126, Final residual = 5.65221e-06, No Iterations 2
ExecutionTime = 34.11 s  ClockTime = 34 s

forces forcesFish write:
    Sum of forces
        Total    : (0.0332641 0.000711805 4.7652e-05)
        Pressure : (0.00970641 0.000728121 5.0143e-05)
        Viscous  : (0.0235577 -1.63168e-05 -2.49099e-06)
    Sum of moments
        Total    : (-1.69273e-09 -9.5228e-06 9.00888e-05)
        Pressure : (-3.73e-08 -9.48094e-06 8.6308e-05)
        Viscous  : (3.56072e-08 -4.18604e-08 3.78074e-06)
    writing force and moment files.

Time = 55

smoothSolver:  Solving for Ux, Initial residual = 2.65066e-05, Final residual = 7.7184e-07, No Iterations 2
smoothSolver:  Solving for Uy, Initial residual = 0.000427685, Final residual = 9.90576e-06, No Iterations 2
smoothSolver:  Solving for Uz, Initial residual = 0.00118194, Final residual = 3.02443e-05, No Iterations 2
GAMG:  Solving for p, Initial residual = 0.0020341, Final residual = 9.00038e-05, No Iterations 2
time step continuity errors : sum local = 2.28517e-07, global = 5.663e-08, cumulative = -1.99653e-07
smoothSolver:  Solving for omega, Initial residual = 1.42995e-06, Final residual = 4.55898e-08, No Iterations 2
smoothSolver:  Solving for k, Initial residual = 0.000368462, Final residual = 4.68061e-06, No Iterations 2
ExecutionTime = 34.69 s  ClockTime = 35 s

forces forcesFish write:
    Sum of forces
        Total    : (0.0331869 0.000710614 4.52433e-05)
        Pressure : (0.00968289 0.00072672 4.76842e-05)
        Viscous  : (0.023504 -1.6106e-05 -2.44083e-06)
    Sum of moments
        Total    : (1.09879e-08 -8.6993e-06 8.97654e-05)
        Pressure : (-2.44115e-08 -8.63502e-06 8.60887e-05)
        Viscous  : (3.53994e-08 -6.42864e-08 3.67669e-06)
    writing force and moment files.

Time = 56

smoothSolver:  Solving for Ux, Initial residual = 2.34434e-05, Final residual = 7.08642e-07, No Iterations 2
smoothSolver:  Solving for Uy, Initial residual = 0.00041215, Final residual = 9.57757e-06, No Iterations 2
smoothSolver:  Solving for Uz, Initial residual = 0.00112502, Final residual = 2.86416e-05, No Iterations 2
GAMG:  Solving for p, Initial residual = 0.00192367, Final residual = 8.39382e-05, No Iterations 2
time step continuity errors : sum local = 2.13691e-07, global = 4.29139e-08, cumulative = -1.56739e-07
smoothSolver:  Solving for omega, Initial residual = 1.26699e-06, Final residual = 4.09016e-08, No Iterations 2
smoothSolver:  Solving for k, Initial residual = 0.000300858, Final residual = 3.87523e-06, No Iterations 2
ExecutionTime = 35.26 s  ClockTime = 35 s

forces forcesFish write:
    Sum of forces
        Total    : (0.0331158 0.000709351 4.22967e-05)
        Pressure : (0.00966331 0.000725256 4.46849e-05)
        Viscous  : (0.0234524 -1.59049e-05 -2.38815e-06)
    Sum of moments
        Total    : (2.03502e-08 -7.83483e-06 8.94303e-05)
        Pressure : (-1.48354e-08 -7.74747e-06 8.58559e-05)
        Viscous  : (3.51857e-08 -8.73627e-08 3.57438e-06)
    writing force and moment files.

Time = 57

smoothSolver:  Solving for Ux, Initial residual = 2.04962e-05, Final residual = 6.48962e-07, No Iterations 2
smoothSolver:  Solving for Uy, Initial residual = 0.000394907, Final residual = 9.20349e-06, No Iterations 2
smoothSolver:  Solving for Uz, Initial residual = 0.00106869, Final residual = 2.72178e-05, No Iterations 2
GAMG:  Solving for p, Initial residual = 0.00181456, Final residual = 7.63953e-05, No Iterations 2
time step continuity errors : sum local = 1.95101e-07, global = 3.65337e-08, cumulative = -1.20205e-07
smoothSolver:  Solving for omega, Initial residual = 1.12967e-06, Final residual = 3.67112e-08, No Iterations 2
smoothSolver:  Solving for k, Initial residual = 0.000244717, Final residual = 3.20878e-06, No Iterations 2
ExecutionTime = 35.81 s  ClockTime = 36 s

forces forcesFish write:
    Sum of forces
        Total    : (0.0330515 0.000708147 3.96822e-05)
        Pressure : (0.00964849 0.000723858 4.20148e-05)
        Viscous  : (0.023403 -1.57116e-05 -2.33261e-06)
    Sum of moments
        Total    : (2.47333e-08 -7.16685e-06 8.91348e-05)
        Pressure : (-1.02432e-08 -7.05562e-06 8.56604e-05)
        Viscous  : (3.49766e-08 -1.11232e-07 3.47435e-06)
    writing force and moment files.

Time = 58

smoothSolver:  Solving for Ux, Initial residual = 1.91792e-05, Final residual = 6.1457e-07, No Iterations 2
smoothSolver:  Solving for Uy, Initial residual = 0.000374545, Final residual = 8.76632e-06, No Iterations 2
smoothSolver:  Solving for Uz, Initial residual = 0.00100909, Final residual = 2.58899e-05, No Iterations 2
GAMG:  Solving for p, Initial residual = 0.001711, Final residual = 6.55923e-05, No Iterations 2
time step continuity errors : sum local = 1.68005e-07, global = 3.90853e-08, cumulative = -8.11197e-08
smoothSolver:  Solving for omega, Initial residual = 1.01298e-06, Final residual = 3.29456e-08, No Iterations 2
smoothSolver:  Solving for k, Initial residual = 0.000198472, Final residual = 2.65784e-06, No Iterations 2
ExecutionTime = 36.37 s  ClockTime = 36 s

forces forcesFish write:
    Sum of forces
        Total    : (0.032993 0.000707146 3.80225e-05)
        Pressure : (0.00963734 0.000722671 4.02965e-05)
        Viscous  : (0.0233557 -1.5525e-05 -2.27401e-06)
    Sum of moments
        Total    : (2.42952e-08 -6.8187e-06 8.89163e-05)
        Pressure : (-1.04864e-08 -6.68264e-06 8.55395e-05)
        Viscous  : (3.47816e-08 -1.36057e-07 3.37681e-06)
    writing force and moment files.

Time = 59

smoothSolver:  Solving for Ux, Initial residual = 1.85514e-05, Final residual = 5.90655e-07, No Iterations 2
smoothSolver:  Solving for Uy, Initial residual = 0.000351443, Final residual = 8.34043e-06, No Iterations 2
smoothSolver:  Solving for Uz, Initial residual = 0.000947484, Final residual = 2.48247e-05, No Iterations 2
GAMG:  Solving for p, Initial residual = 0.00161998, Final residual = 5.70803e-05, No Iterations 2
time step continuity errors : sum local = 1.46535e-07, global = 3.47846e-08, cumulative = -4.6335e-08
smoothSolver:  Solving for omega, Initial residual = 9.12816e-07, Final residual = 2.95484e-08, No Iterations 2
smoothSolver:  Solving for k, Initial residual = 0.000160668, Final residual = 2.20292e-06, No Iterations 2
ExecutionTime = 36.93 s  ClockTime = 37 s

forces forcesFish write:
    Sum of forces
        Total    : (0.0329387 0.000706401 3.73917e-05)
        Pressure : (0.00962838 0.000721746 3.96043e-05)
        Viscous  : (0.0233104 -1.53445e-05 -2.21261e-06)
    Sum of moments
        Total    : (2.0293e-08 -6.7694e-06 8.87847e-05)
        Pressure : (-1.43168e-08 -6.60755e-06 8.55029e-05)
        Viscous  : (3.46098e-08 -1.61851e-07 3.2818e-06)
    writing force and moment files.

Time = 60

smoothSolver:  Solving for Ux, Initial residual = 1.78198e-05, Final residual = 5.66202e-07, No Iterations 2
smoothSolver:  Solving for Uy, Initial residual = 0.000329012, Final residual = 8.01106e-06, No Iterations 2
smoothSolver:  Solving for Uz, Initial residual = 0.000886494, Final residual = 2.39339e-05, No Iterations 2
GAMG:  Solving for p, Initial residual = 0.00154091, Final residual = 5.24668e-05, No Iterations 2
time step continuity errors : sum local = 1.3492e-07, global = 2.13789e-08, cumulative = -2.49561e-08
smoothSolver:  Solving for omega, Initial residual = 8.25961e-07, Final residual = 2.64843e-08, No Iterations 2
smoothSolver:  Solving for k, Initial residual = 0.000129959, Final residual = 1.8274e-06, No Iterations 2
ExecutionTime = 37.47 s  ClockTime = 37 s

forces forcesFish write:
    Sum of forces
        Total    : (0.0328877 0.000705951 3.76353e-05)
        Pressure : (0.00962071 0.000721121 3.97838e-05)
        Viscous  : (0.023267 -1.51702e-05 -2.1485e-06)
    Sum of moments
        Total    : (1.40276e-08 -6.95796e-06 8.8752e-05)
        Pressure : (-2.04353e-08 -6.76938e-06 8.55626e-05)
        Viscous  : (3.44629e-08 -1.88587e-07 3.18933e-06)
    writing force and moment files.

Time = 61

smoothSolver:  Solving for Ux, Initial residual = 1.70078e-05, Final residual = 5.41228e-07, No Iterations 2
smoothSolver:  Solving for Uy, Initial residual = 0.000309031, Final residual = 7.77346e-06, No Iterations 2
smoothSolver:  Solving for Uz, Initial residual = 0.000830039, Final residual = 2.31616e-05, No Iterations 2
GAMG:  Solving for p, Initial residual = 0.00147016, Final residual = 5.0147e-05, No Iterations 2
time step continuity errors : sum local = 1.29123e-07, global = 2.93867e-09, cumulative = -2.20174e-08
smoothSolver:  Solving for omega, Initial residual = 7.49884e-07, Final residual = 2.37223e-08, No Iterations 2
smoothSolver:  Solving for k, Initial residual = 0.000105145, Final residual = 1.51746e-06, No Iterations 2
ExecutionTime = 38.01 s  ClockTime = 38 s

forces forcesFish write:
    Sum of forces
        Total    : (0.0328395 0.000705873 3.85466e-05)
        Pressure : (0.00961397 0.000720875 4.06283e-05)
        Viscous  : (0.0232255 -1.50021e-05 -2.08177e-06)
    Sum of moments
        Total    : (6.55987e-09 -7.31924e-06 8.88362e-05)
        Pressure : (-2.7781e-08 -7.10295e-06 8.57368e-05)
        Viscous  : (3.43409e-08 -2.1629e-07 3.09942e-06)
    writing force and moment files.

Time = 62

smoothSolver:  Solving for Ux, Initial residual = 1.61816e-05, Final residual = 5.16558e-07, No Iterations 2
smoothSolver:  Solving for Uy, Initial residual = 0.000291808, Final residual = 7.65291e-06, No Iterations 2
smoothSolver:  Solving for Uz, Initial residual = 0.000782717, Final residual = 2.25513e-05, No Iterations 2
GAMG:  Solving for p, Initial residual = 0.00140164, Final residual = 4.84412e-05, No Iterations 2
time step continuity errors : sum local = 1.24857e-07, global = -1.63044e-08, cumulative = -3.83218e-08
smoothSolver:  Solving for omega, Initial residual = 6.82588e-07, Final residual = 2.12427e-08, No Iterations 2
smoothSolver:  Solving for k, Initial residual = 8.51785e-05, Final residual = 1.26159e-06, No Iterations 2
ExecutionTime = 38.55 s  ClockTime = 38 s

forces forcesFish write:
    Sum of forces
        Total    : (0.0327939 0.000706243 3.98835e-05)
        Pressure : (0.00960802 0.000721083 4.18959e-05)
        Viscous  : (0.0231859 -1.484e-05 -2.0124e-06)
    Sum of moments
        Total    : (-1.22991e-09 -7.78324e-06 8.90533e-05)
        Pressure : (-3.54697e-08 -7.5383e-06 8.60411e-05)
        Viscous  : (3.42398e-08 -2.44938e-07 3.01218e-06)
    writing force and moment files.

Time = 63

smoothSolver:  Solving for Ux, Initial residual = 1.53335e-05, Final residual = 4.91734e-07, No Iterations 2
smoothSolver:  Solving for Uy, Initial residual = 0.000277061, Final residual = 7.59998e-06, No Iterations 2
smoothSolver:  Solving for Uz, Initial residual = 0.000743776, Final residual = 2.20877e-05, No Iterations 2
GAMG:  Solving for p, Initial residual = 0.00133426, Final residual = 4.85971e-05, No Iterations 2
time step continuity errors : sum local = 1.25351e-07, global = -3.07383e-08, cumulative = -6.90601e-08
smoothSolver:  Solving for omega, Initial residual = 6.22639e-07, Final residual = 1.90213e-08, No Iterations 2
smoothSolver:  Solving for k, Initial residual = 6.91598e-05, Final residual = 1.05026e-06, No Iterations 2
ExecutionTime = 39.09 s  ClockTime = 39 s

forces forcesFish write:
    Sum of forces
        Total    : (0.0327509 0.000707125 4.1426e-05)
        Pressure : (0.00960288 0.000721809 4.33663e-05)
        Viscous  : (0.023148 -1.4684e-05 -1.94031e-06)
    Sum of moments
        Total    : (-8.65724e-09 -8.28972e-06 8.9416e-05)
        Pressure : (-4.28096e-08 -8.01517e-06 8.64882e-05)
        Viscous  : (3.41524e-08 -2.74549e-07 2.92784e-06)
[...]
    writing force and moment files.

Time = 141

smoothSolver:  Solving for Ux, Initial residual = 5.24513e-07, Final residual = 9.13827e-09, No Iterations 2
smoothSolver:  Solving for Uy, Initial residual = 9.49216e-06, Final residual = 2.69971e-07, No Iterations 2
smoothSolver:  Solving for Uz, Initial residual = 2.47958e-05, Final residual = 6.89503e-07, No Iterations 2
GAMG:  Solving for p, Initial residual = 2.95907e-05, Final residual = 1.13011e-06, No Iterations 2
time step continuity errors : sum local = 2.95043e-09, global = -2.72675e-10, cumulative = -1.46233e-07
smoothSolver:  Solving for omega, Initial residual = 1.00317e-08, Final residual = 1.64241e-09, No Iterations 1
smoothSolver:  Solving for k, Initial residual = 3.14706e-08, Final residual = 3.80334e-09, No Iterations 1
ExecutionTime = 85.68 s  ClockTime = 86 s

forces forcesFish write:
    Sum of forces
        Total    : (0.0320268 0.000789107 -3.55739e-06)
        Pressure : (0.00957771 0.000801938 -4.78532e-06)
        Viscous  : (0.0224491 -1.28314e-05 1.22794e-06)
    Sum of moments
        Total    : (-4.03265e-08 2.97608e-07 0.000115382)
        Pressure : (-7.53525e-08 1.88715e-06 0.000114512)
        Viscous  : (3.50259e-08 -1.58954e-06 8.70185e-07)
    writing force and moment files.

Time = 142

smoothSolver:  Solving for Ux, Initial residual = 4.99848e-07, Final residual = 8.65991e-09, No Iterations 2
smoothSolver:  Solving for Uy, Initial residual = 8.92262e-06, Final residual = 2.52663e-07, No Iterations 2
smoothSolver:  Solving for Uz, Initial residual = 2.32939e-05, Final residual = 6.45059e-07, No Iterations 2
GAMG:  Solving for p, Initial residual = 2.7699e-05, Final residual = 1.01361e-06, No Iterations 2
time step continuity errors : sum local = 2.64631e-09, global = 2.36178e-10, cumulative = -1.45996e-07
smoothSolver:  Solving for omega, Initial residual = 7.29103e-09, Final residual = 7.29103e-09, No Iterations 0
smoothSolver:  Solving for k, Initial residual = 2.99281e-08, Final residual = 3.61476e-09, No Iterations 1
ExecutionTime = 86.2 s  ClockTime = 86 s

forces forcesFish write:
    Sum of forces
        Total    : (0.0320264 0.000789153 -3.53405e-06)
        Pressure : (0.00957767 0.000801981 -4.76207e-06)
        Viscous  : (0.0224487 -1.28285e-05 1.22802e-06)
    Sum of moments
        Total    : (-4.03804e-08 2.9038e-07 0.000115397)
        Pressure : (-7.54129e-08 1.88012e-06 0.000114527)
        Viscous  : (3.50325e-08 -1.58974e-06 8.69867e-07)
    writing force and moment files.

Time = 143

smoothSolver:  Solving for Ux, Initial residual = 4.73419e-07, Final residual = 8.17184e-09, No Iterations 2
smoothSolver:  Solving for Uy, Initial residual = 8.3867e-06, Final residual = 2.36949e-07, No Iterations 2
smoothSolver:  Solving for Uz, Initial residual = 2.18925e-05, Final residual = 6.05075e-07, No Iterations 2
GAMG:  Solving for p, Initial residual = 2.59842e-05, Final residual = 9.38078e-07, No Iterations 2
time step continuity errors : sum local = 2.44914e-09, global = 6.6817e-10, cumulative = -1.45328e-07
smoothSolver:  Solving for omega, Initial residual = 8.23086e-09, Final residual = 8.23086e-09, No Iterations 0
smoothSolver:  Solving for k, Initial residual = 2.84414e-08, Final residual = 3.40002e-09, No Iterations 1
ExecutionTime = 86.76 s  ClockTime = 87 s

forces forcesFish write:
    Sum of forces
        Total    : (0.032026 0.000789195 -3.51172e-06)
        Pressure : (0.00957762 0.000802021 -4.73981e-06)
        Viscous  : (0.0224484 -1.28258e-05 1.22809e-06)
    Sum of moments
        Total    : (-4.04312e-08 2.8348e-07 0.000115411)
        Pressure : (-7.54696e-08 1.8734e-06 0.000114542)
        Viscous  : (3.50384e-08 -1.58992e-06 8.69585e-07)
    writing force and moment files.

Time = 144

smoothSolver:  Solving for Ux, Initial residual = 4.44792e-07, Final residual = 7.66992e-09, No Iterations 2
smoothSolver:  Solving for Uy, Initial residual = 7.88442e-06, Final residual = 2.22442e-07, No Iterations 2
smoothSolver:  Solving for Uz, Initial residual = 2.05781e-05, Final residual = 5.68211e-07, No Iterations 2
GAMG:  Solving for p, Initial residual = 2.44397e-05, Final residual = 9.14398e-07, No Iterations 2
time step continuity errors : sum local = 2.38735e-09, global = 9.97223e-10, cumulative = -1.44331e-07
smoothSolver:  Solving for omega, Initial residual = 9.11545e-09, Final residual = 9.11545e-09, No Iterations 0
smoothSolver:  Solving for k, Initial residual = 2.70414e-08, Final residual = 3.20421e-09, No Iterations 1
ExecutionTime = 87.28 s  ClockTime = 87 s

forces forcesFish write:
    Sum of forces
        Total    : (0.0320257 0.000789236 -3.49061e-06)
        Pressure : (0.00957758 0.000802059 -4.71878e-06)
        Viscous  : (0.0224481 -1.28231e-05 1.22817e-06)
    Sum of moments
        Total    : (-4.048e-08 2.7696e-07 0.000115425)
        Pressure : (-7.55236e-08 1.86705e-06 0.000114555)
        Viscous  : (3.50436e-08 -1.59009e-06 8.69337e-07)
    writing force and moment files.

Time = 145

smoothSolver:  Solving for Ux, Initial residual = 4.14002e-07, Final residual = 7.15433e-09, No Iterations 2
smoothSolver:  Solving for Uy, Initial residual = 7.41409e-06, Final residual = 2.0901e-07, No Iterations 2
smoothSolver:  Solving for Uz, Initial residual = 1.93478e-05, Final residual = 5.34115e-07, No Iterations 2
GAMG:  Solving for p, Initial residual = 2.30254e-05, Final residual = 9.82944e-07, No Iterations 2
time step continuity errors : sum local = 2.56636e-09, global = 1.17618e-09, cumulative = -1.43155e-07
smoothSolver:  Solving for omega, Initial residual = 9.9468e-09, Final residual = 9.9468e-09, No Iterations 0
smoothSolver:  Solving for k, Initial residual = 2.57093e-08, Final residual = 3.02137e-09, No Iterations 1
ExecutionTime = 87.79 s  ClockTime = 88 s

forces forcesFish write:
    Sum of forces
        Total    : (0.0320254 0.000789275 -3.47098e-06)
        Pressure : (0.00957754 0.000802095 -4.69922e-06)
        Viscous  : (0.0224478 -1.28207e-05 1.22824e-06)
    Sum of moments
        Total    : (-4.05272e-08 2.70881e-07 0.000115437)
        Pressure : (-7.55755e-08 1.86113e-06 0.000114568)
        Viscous  : (3.50483e-08 -1.59024e-06 8.6912e-07)
    writing force and moment files.

Time = 146

smoothSolver:  Solving for Ux, Initial residual = 3.80684e-07, Final residual = 6.6203e-09, No Iterations 2
smoothSolver:  Solving for Uy, Initial residual = 6.97265e-06, Final residual = 1.96474e-07, No Iterations 2
smoothSolver:  Solving for Uz, Initial residual = 1.81927e-05, Final residual = 5.02314e-07, No Iterations 2
GAMG:  Solving for p, Initial residual = 2.1694e-05, Final residual = 1.01175e-06, No Iterations 2
time step continuity errors : sum local = 2.64161e-09, global = 1.20801e-09, cumulative = -1.41947e-07
smoothSolver:  Solving for omega, Initial residual = 1.07272e-08, Final residual = 1.71844e-09, No Iterations 1
smoothSolver:  Solving for k, Initial residual = 2.38095e-08, Final residual = 2.8444e-09, No Iterations 1
ExecutionTime = 88.32 s  ClockTime = 88 s

forces forcesFish write:
    Sum of forces
        Total    : (0.0320251 0.000789311 -3.45314e-06)
        Pressure : (0.0095775 0.000802129 -4.68146e-06)
        Viscous  : (0.0224476 -1.28183e-05 1.22831e-06)
    Sum of moments
        Total    : (-4.05729e-08 2.65328e-07 0.00011545)
        Pressure : (-7.56254e-08 1.85571e-06 0.000114581)
        Viscous  : (3.50525e-08 -1.59039e-06 8.6893e-07)
    writing force and moment files.

Time = 147

smoothSolver:  Solving for Ux, Initial residual = 3.45235e-07, Final residual = 6.07178e-09, No Iterations 2
smoothSolver:  Solving for Uy, Initial residual = 6.55511e-06, Final residual = 1.8433e-07, No Iterations 2
smoothSolver:  Solving for Uz, Initial residual = 1.70925e-05, Final residual = 4.71175e-07, No Iterations 2
GAMG:  Solving for p, Initial residual = 2.04135e-05, Final residual = 9.88865e-07, No Iterations 2
time step continuity errors : sum local = 2.58192e-09, global = 1.14107e-09, cumulative = -1.40806e-07
smoothSolver:  Solving for omega, Initial residual = 7.30419e-09, Final residual = 7.30419e-09, No Iterations 0
smoothSolver:  Solving for k, Initial residual = 2.25208e-08, Final residual = 2.70498e-09, No Iterations 1
ExecutionTime = 88.83 s  ClockTime = 89 s

forces forcesFish write:
    Sum of forces
        Total    : (0.0320248 0.000789345 -3.43758e-06)
        Pressure : (0.00957747 0.000802161 -4.66597e-06)
        Viscous  : (0.0224473 -1.28161e-05 1.22839e-06)
    Sum of moments
        Total    : (-4.06148e-08 2.60433e-07 0.000115461)
        Pressure : (-7.5671e-08 1.85095e-06 0.000114592)
        Viscous  : (3.50562e-08 -1.59052e-06 8.68767e-07)
    writing force and moment files.

Time = 148

smoothSolver:  Solving for Ux, Initial residual = 3.09119e-07, Final residual = 5.52338e-09, No Iterations 2
smoothSolver:  Solving for Uy, Initial residual = 6.15667e-06, Final residual = 1.7303e-07, No Iterations 2
smoothSolver:  Solving for Uz, Initial residual = 1.60586e-05, Final residual = 4.42602e-07, No Iterations 2
GAMG:  Solving for p, Initial residual = 1.91684e-05, Final residual = 9.19329e-07, No Iterations 2
time step continuity errors : sum local = 2.40041e-09, global = 1.03496e-09, cumulative = -1.39771e-07
smoothSolver:  Solving for omega, Initial residual = 7.97696e-09, Final residual = 7.97696e-09, No Iterations 0
smoothSolver:  Solving for k, Initial residual = 2.12624e-08, Final residual = 2.5325e-09, No Iterations 1
ExecutionTime = 89.35 s  ClockTime = 89 s

forces forcesFish write:
    Sum of forces
        Total    : (0.0320245 0.000789375 -3.42441e-06)
        Pressure : (0.00957744 0.000802189 -4.65288e-06)
        Viscous  : (0.0224471 -1.2814e-05 1.22847e-06)
    Sum of moments
        Total    : (-4.06536e-08 2.56228e-07 0.000115471)
        Pressure : (-7.57131e-08 1.84687e-06 0.000114602)
        Viscous  : (3.50595e-08 -1.59064e-06 8.68623e-07)
    writing force and moment files.

Time = 149

smoothSolver:  Solving for Ux, Initial residual = 2.7522e-07, Final residual = 5.00797e-09, No Iterations 2
smoothSolver:  Solving for Uy, Initial residual = 5.77328e-06, Final residual = 1.62107e-07, No Iterations 2
smoothSolver:  Solving for Uz, Initial residual = 1.50706e-05, Final residual = 4.14974e-07, No Iterations 2
GAMG:  Solving for p, Initial residual = 1.79586e-05, Final residual = 8.20394e-07, No Iterations 2
time step continuity errors : sum local = 2.14212e-09, global = 9.01299e-10, cumulative = -1.3887e-07
smoothSolver:  Solving for omega, Initial residual = 8.60959e-09, Final residual = 8.60959e-09, No Iterations 0
smoothSolver:  Solving for k, Initial residual = 2.00748e-08, Final residual = 2.37459e-09, No Iterations 1
ExecutionTime = 89.87 s  ClockTime = 90 s

forces forcesFish write:
    Sum of forces
        Total    : (0.0320243 0.000789403 -3.41336e-06)
        Pressure : (0.00957742 0.000802215 -4.6419e-06)
        Viscous  : (0.0224469 -1.2812e-05 1.22854e-06)
    Sum of moments
        Total    : (-4.06891e-08 2.52641e-07 0.00011548)
        Pressure : (-7.57516e-08 1.84339e-06 0.000114612)
        Viscous  : (3.50625e-08 -1.59075e-06 8.68494e-07)
    writing force and moment files.

Time = 150

smoothSolver:  Solving for Ux, Initial residual = 2.45967e-07, Final residual = 4.55375e-09, No Iterations 2
smoothSolver:  Solving for Uy, Initial residual = 5.40485e-06, Final residual = 1.51538e-07, No Iterations 2
smoothSolver:  Solving for Uz, Initial residual = 1.41293e-05, Final residual = 3.88188e-07, No Iterations 2
GAMG:  Solving for p, Initial residual = 1.67908e-05, Final residual = 7.11982e-07, No Iterations 2
time step continuity errors : sum local = 1.85908e-09, global = 7.18896e-10, cumulative = -1.38151e-07
smoothSolver:  Solving for omega, Initial residual = 9.20417e-09, Final residual = 9.20417e-09, No Iterations 0
smoothSolver:  Solving for k, Initial residual = 1.89533e-08, Final residual = 2.2266e-09, No Iterations 1
ExecutionTime = 90.39 s  ClockTime = 90 s

forces forcesFish write:
    Sum of forces
        Total    : (0.0320241 0.000789428 -3.40382e-06)
        Pressure : (0.0095774 0.000802239 -4.63244e-06)
        Viscous  : (0.0224467 -1.28101e-05 1.22862e-06)
    Sum of moments
        Total    : (-4.07215e-08 2.49511e-07 0.000115489)
        Pressure : (-7.57866e-08 1.84037e-06 0.00011462)
        Viscous  : (3.50651e-08 -1.59085e-06 8.68377e-07)
    writing force and moment files.

Time = 151

smoothSolver:  Solving for Ux, Initial residual = 2.22515e-07, Final residual = 4.1757e-09, No Iterations 2
smoothSolver:  Solving for Uy, Initial residual = 5.05505e-06, Final residual = 1.41433e-07, No Iterations 2
smoothSolver:  Solving for Uz, Initial residual = 1.32411e-05, Final residual = 3.6251e-07, No Iterations 2
GAMG:  Solving for p, Initial residual = 1.56765e-05, Final residual = 6.05087e-07, No Iterations 2
time step continuity errors : sum local = 1.57999e-09, global = 4.8147e-10, cumulative = -1.37669e-07
smoothSolver:  Solving for omega, Initial residual = 9.76269e-09, Final residual = 9.76269e-09, No Iterations 0
smoothSolver:  Solving for k, Initial residual = 1.7897e-08, Final residual = 2.08882e-09, No Iterations 1
ExecutionTime = 90.91 s  ClockTime = 91 s

forces forcesFish write:
    Sum of forces
        Total    : (0.0320239 0.000789451 -3.39519e-06)
        Pressure : (0.00957738 0.00080226 -4.62388e-06)
        Viscous  : (0.0224465 -1.28084e-05 1.2287e-06)
    Sum of moments
        Total    : (-4.07507e-08 2.46664e-07 0.000115497)
        Pressure : (-7.58182e-08 1.83762e-06 0.000114628)
        Viscous  : (3.50674e-08 -1.59095e-06 8.6827e-07)
    writing force and moment files.

Time = 152

smoothSolver:  Solving for Ux, Initial residual = 2.03992e-07, Final residual = 3.86413e-09, No Iterations 2
smoothSolver:  Solving for Uy, Initial residual = 4.72872e-06, Final residual = 1.31957e-07, No Iterations 2
smoothSolver:  Solving for Uz, Initial residual = 1.2411e-05, Final residual = 3.38354e-07, No Iterations 2
GAMG:  Solving for p, Initial residual = 1.46235e-05, Final residual = 5.04627e-07, No Iterations 2
time step continuity errors : sum local = 1.31768e-09, global = 2.08094e-10, cumulative = -1.37461e-07
smoothSolver:  Solving for omega, Initial residual = 1.02873e-08, Final residual = 1.66828e-09, No Iterations 1
smoothSolver:  Solving for k, Initial residual = 1.63429e-08, Final residual = 1.9615e-09, No Iterations 1
ExecutionTime = 91.44 s  ClockTime = 91 s

forces forcesFish write:
    Sum of forces
        Total    : (0.0320237 0.000789472 -3.38707e-06)
        Pressure : (0.00957736 0.000802279 -4.61584e-06)
        Viscous  : (0.0224463 -1.28067e-05 1.22877e-06)
    Sum of moments
        Total    : (-4.07771e-08 2.43987e-07 0.000115504)
        Pressure : (-7.58466e-08 1.83503e-06 0.000114636)
        Viscous  : (3.50695e-08 -1.59104e-06 8.68172e-07)
    writing force and moment files.

Time = 153

smoothSolver:  Solving for Ux, Initial residual = 1.89166e-07, Final residual = 3.60182e-09, No Iterations 2
smoothSolver:  Solving for Uy, Initial residual = 4.42691e-06, Final residual = 1.22935e-07, No Iterations 2
smoothSolver:  Solving for Uz, Initial residual = 1.16307e-05, Final residual = 3.14993e-07, No Iterations 2
GAMG:  Solving for p, Initial residual = 1.36498e-05, Final residual = 4.24058e-07, No Iterations 2
time step continuity errors : sum local = 1.10731e-09, global = -7.44279e-11, cumulative = -1.37535e-07
smoothSolver:  Solving for omega, Initial residual = 6.87558e-09, Final residual = 6.87558e-09, No Iterations 0
smoothSolver:  Solving for k, Initial residual = 1.5359e-08, Final residual = 1.86937e-09, No Iterations 1
ExecutionTime = 91.96 s  ClockTime = 92 s

forces forcesFish write:
    Sum of forces
        Total    : (0.0320235 0.000789493 -3.37945e-06)
        Pressure : (0.00957734 0.000802298 -4.60831e-06)
        Viscous  : (0.0224462 -1.28052e-05 1.22886e-06)
    Sum of moments
        Total    : (-4.07995e-08 2.41469e-07 0.000115511)
        Pressure : (-7.58709e-08 1.8326e-06 0.000114643)
        Viscous  : (3.50714e-08 -1.59113e-06 8.68088e-07)
    writing force and moment files.

Time = 154

smoothSolver:  Solving for Ux, Initial residual = 1.76913e-07, Final residual = 3.37531e-09, No Iterations 2
smoothSolver:  Solving for Uy, Initial residual = 4.15049e-06, Final residual = 1.15053e-07, No Iterations 2
smoothSolver:  Solving for Uz, Initial residual = 1.09219e-05, Final residual = 2.94967e-07, No Iterations 2
GAMG:  Solving for p, Initial residual = 1.28075e-05, Final residual = 4.34998e-07, No Iterations 2
time step continuity errors : sum local = 1.13588e-09, global = -3.19519e-10, cumulative = -1.37855e-07
smoothSolver:  Solving for omega, Initial residual = 7.32734e-09, Final residual = 7.32734e-09, No Iterations 0
smoothSolver:  Solving for k, Initial residual = 1.43985e-08, Final residual = 1.73519e-09, No Iterations 1
ExecutionTime = 92.48 s  ClockTime = 92 s

forces forcesFish write:
    Sum of forces
        Total    : (0.0320233 0.000789512 -3.37232e-06)
        Pressure : (0.00957732 0.000802316 -4.60127e-06)
        Viscous  : (0.022446 -1.28037e-05 1.22894e-06)
    Sum of moments
        Total    : (-4.08198e-08 2.39097e-07 0.000115517)
        Pressure : (-7.58929e-08 1.83031e-06 0.000114649)
        Viscous  : (3.50731e-08 -1.59121e-06 8.68014e-07)
    writing force and moment files.

Time = 155

smoothSolver:  Solving for Ux, Initial residual = 1.66952e-07, Final residual = 3.18011e-09, No Iterations 2
smoothSolver:  Solving for Uy, Initial residual = 3.89751e-06, Final residual = 1.07967e-07, No Iterations 2
smoothSolver:  Solving for Uz, Initial residual = 1.02676e-05, Final residual = 2.77033e-07, No Iterations 2
GAMG:  Solving for p, Initial residual = 1.2076e-05, Final residual = 4.9436e-07, No Iterations 2
time step continuity errors : sum local = 1.2909e-09, global = -4.91604e-10, cumulative = -1.38347e-07
smoothSolver:  Solving for omega, Initial residual = 7.75344e-09, Final residual = 7.75344e-09, No Iterations 0
smoothSolver:  Solving for k, Initial residual = 1.35228e-08, Final residual = 1.61568e-09, No Iterations 1
ExecutionTime = 93 s  ClockTime = 93 s

forces forcesFish write:
    Sum of forces
        Total    : (0.0320232 0.00078953 -3.36573e-06)
        Pressure : (0.0095773 0.000802333 -4.59476e-06)
        Viscous  : (0.0224459 -1.28023e-05 1.22903e-06)
    Sum of moments
        Total    : (-4.08393e-08 2.36879e-07 0.000115523)
        Pressure : (-7.59138e-08 1.82817e-06 0.000114656)
        Viscous  : (3.50746e-08 -1.59129e-06 8.67949e-07)
    writing force and moment files.

Time = 156

smoothSolver:  Solving for Ux, Initial residual = 1.59261e-07, Final residual = 3.01429e-09, No Iterations 2
smoothSolver:  Solving for Uy, Initial residual = 3.66579e-06, Final residual = 1.01589e-07, No Iterations 2
smoothSolver:  Solving for Uz, Initial residual = 9.66394e-06, Final residual = 2.60931e-07, No Iterations 2
GAMG:  Solving for p, Initial residual = 1.13949e-05, Final residual = 5.37568e-07, No Iterations 2
time step continuity errors : sum local = 1.40373e-09, global = -5.63238e-10, cumulative = -1.3891e-07
smoothSolver:  Solving for omega, Initial residual = 8.15482e-09, Final residual = 8.15482e-09, No Iterations 0
smoothSolver:  Solving for k, Initial residual = 1.2709e-08, Final residual = 1.50778e-09, No Iterations 1
ExecutionTime = 93.51 s  ClockTime = 93 s


SIMPLE solution converged in 156 iterations

forces forcesFish write:
    Sum of forces
        Total    : (0.032023 0.000789548 -3.35974e-06)
        Pressure : (0.00957728 0.000802349 -4.58886e-06)
        Viscous  : (0.0224457 -1.2801e-05 1.22912e-06)
    Sum of moments
        Total    : (-4.08584e-08 2.34834e-07 0.00011553)
        Pressure : (-7.59343e-08 1.8262e-06 0.000114662)
        Viscous  : (3.50759e-08 -1.59137e-06 8.67893e-07)
    writing force and moment files.

End

