/*---------------------------------------------------------------------------*\
| =========                 |                                                 |
| \\      /  F ield         | OpenFOAM: The Open Source CFD Toolbox           |
|  \\    /   O peration     | Version:  2512                                  |
|   \\  /    A nd           | Website:  www.openfoam.com                      |
|    \\/     M anipulation  |                                                 |
\*---------------------------------------------------------------------------*/
Build  : _bd2b6720-20260127 OPENFOAM=2512 version=2512
Arch   : "LSB;label=32;scalar=64"
Exec   : simpleFoam
Date   : Mar 28 2026
Time   : 17:35:25
Host   : mathias-laptop
PID    : 9788
I/O    : uncollated
Case   : /home/mat/OpenFOAM/mat-run/speed_sweep_runs/U_0p8
nProcs : 1
trapFpe: Floating point exception trapping enabled (FOAM_SIGFPE).
memory pool : not available
fileModificationChecking : Monitoring run-time modified files using timeStampMaster (fileModificationSkew 5, maxFileModificationPolls 20)
allowSystemOperations : Allowing user-supplied system call operations

// * * * * * * * * * * * * * * * * * * * * * * * * * * * * * * * * * * * * * //
Create time

Create mesh for time = 0


SIMPLE: convergence criteria
    field p	 tolerance 0.0001
    field U	 tolerance 1e-05
    field "(k|omega)"	 tolerance 1e-05

Reading field p

Reading field U

Reading/calculating face flux field phi

Selecting incompressible transport model Newtonian
Selecting turbulence model type RAS
Selecting RAS turbulence model kOmegaSST
Selecting patchDistMethod meshWave
RAS
{
    RASModel        kOmegaSST;
    turbulence      on;
    printCoeffs     on;
    alphaK1         0.85;
    alphaK2         1;
    alphaOmega1     0.5;
    alphaOmega2     0.856;
    gamma1          0.555556;
    gamma2          0.44;
    beta1           0.075;
    beta2           0.0828;
    betaStar        0.09;
    a1              0.31;
    b1              1;
    c1              10;
    F3              false;
    decayControl    false;
    kInf            0;
    omegaInf        0;
}

No MRF models present

No finite volume options present

Starting time loop

forces forcesFish:
    rho: rhoInf
    Freestream density (rhoInf) set to 1000
    Not including porosity effects

Time = 1

smoothSolver:  Solving for Ux, Initial residual = 1, Final residual = 0.0218876, No Iterations 2
smoothSolver:  Solving for Uy, Initial residual = 1, Final residual = 0.0457286, No Iterations 2
smoothSolver:  Solving for Uz, Initial residual = 1, Final residual = 0.0406691, No Iterations 2
GAMG:  Solving for p, Initial residual = 1, Final residual = 0.0591304, No Iterations 5
time step continuity errors : sum local = 9.41116e-06, global = -1.11503e-06, cumulative = -1.11503e-06
smoothSolver:  Solving for omega, Initial residual = 0.00904552, Final residual = 0.000324183, No Iterations 1
bounding omega, min: -6.92925 max: 10124.2 average: 98.7368
smoothSolver:  Solving for k, Initial residual = 1, Final residual = 0.0361274, No Iterations 1
ExecutionTime = 1.67 s  ClockTime = 2 s

forces forcesFish write:
    Sum of forces
        Total    : (0.699831 0.0184186 -0.00622339)
        Pressure : (0.566446 0.0183702 -0.00622108)
        Viscous  : (0.133384 4.84136e-05 -2.31221e-06)
    Sum of moments
        Total    : (-2.20248e-06 -1.52342e-05 0.0128497)
        Pressure : (-2.14553e-06 -1.84517e-05 0.0127736)
        Viscous  : (-5.69458e-08 3.21743e-06 7.60486e-05)
    writing force and moment files.

Time = 2

smoothSolver:  Solving for Ux, Initial residual = 0.0225964, Final residual = 0.000987687, No Iterations 2
smoothSolver:  Solving for Uy, Initial residual = 0.32575, Final residual = 0.0237595, No Iterations 2
smoothSolver:  Solving for Uz, Initial residual = 0.271358, Final residual = 0.0209316, No Iterations 2
GAMG:  Solving for p, Initial residual = 0.137456, Final residual = 0.0117699, No Iterations 3
time step continuity errors : sum local = 1.79217e-05, global = -1.00755e-06, cumulative = -2.12258e-06
smoothSolver:  Solving for omega, Initial residual = 0.00554266, Final residual = 0.000192882, No Iterations 1
smoothSolver:  Solving for k, Initial residual = 0.44931, Final residual = 0.0168817, No Iterations 1
ExecutionTime = 2.19 s  ClockTime = 2 s

forces forcesFish write:
    Sum of forces
        Total    : (0.868978 0.0252244 -0.00677096)
        Pressure : (0.736536 0.0251888 -0.00679096)
        Viscous  : (0.132443 3.56866e-05 1.99996e-05)
    Sum of moments
        Total    : (1.19777e-06 -6.28018e-05 0.0172634)
        Pressure : (1.12467e-06 -6.46642e-05 0.0171884)
        Viscous  : (7.30998e-08 1.86245e-06 7.5016e-05)
    writing force and moment files.

Time = 3

smoothSolver:  Solving for Ux, Initial residual = 0.00468413, Final residual = 0.000217725, No Iterations 2
smoothSolver:  Solving for Uy, Initial residual = 0.181343, Final residual = 0.0129845, No Iterations 2
smoothSolver:  Solving for Uz, Initial residual = 0.15086, Final residual = 0.0114549, No Iterations 2
GAMG:  Solving for p, Initial residual = 0.345096, Final residual = 0.0126494, No Iterations 3
time step continuity errors : sum local = 1.135e-05, global = -1.00796e-06, cumulative = -3.13054e-06
smoothSolver:  Solving for omega, Initial residual = 0.003884, Final residual = 0.000140938, No Iterations 1
smoothSolver:  Solving for k, Initial residual = 0.264528, Final residual = 0.0102534, No Iterations 1
ExecutionTime = 2.71 s  ClockTime = 3 s

forces forcesFish write:
    Sum of forces
        Total    : (0.819911 0.0252033 -0.00564775)
        Pressure : (0.687838 0.0251843 -0.00568492)
        Viscous  : (0.132073 1.90231e-05 3.71786e-05)
    Sum of moments
        Total    : (6.19779e-06 -0.000130232 0.016246)
        Pressure : (6.00766e-06 -0.000130965 0.0161764)
        Viscous  : (1.90134e-07 7.32834e-07 6.95317e-05)
    writing force and moment files.

Time = 4

smoothSolver:  Solving for Ux, Initial residual = 0.00248075, Final residual = 0.000115547, No Iterations 2
smoothSolver:  Solving for Uy, Initial residual = 0.129624, Final residual = 0.00912319, No Iterations 2
smoothSolver:  Solving for Uz, Initial residual = 0.0919886, Final residual = 0.00685444, No Iterations 2
GAMG:  Solving for p, Initial residual = 0.293952, Final residual = 0.0131428, No Iterations 3
time step continuity errors : sum local = 1.94455e-05, global = -8.53115e-07, cumulative = -3.98365e-06
smoothSolver:  Solving for omega, Initial residual = 0.00287258, Final residual = 0.000108, No Iterations 1
smoothSolver:  Solving for k, Initial residual = 0.176292, Final residual = 0.00700663, No Iterations 1
ExecutionTime = 3.27 s  ClockTime = 4 s

forces forcesFish write:
    Sum of forces
        Total    : (0.647313 0.0206163 -0.0036298)
        Pressure : (0.515518 0.0206169 -0.00367612)
        Viscous  : (0.131795 -5.5743e-07 4.63188e-05)
    Sum of moments
        Total    : (1.05706e-05 -0.000211847 0.0120671)
        Pressure : (1.02892e-05 -0.000211818 0.0120047)
        Viscous  : (2.81411e-07 -2.86779e-08 6.23955e-05)
    writing force and moment files.

Time = 5

smoothSolver:  Solving for Ux, Initial residual = 0.00152359, Final residual = 6.88981e-05, No Iterations 2
smoothSolver:  Solving for Uy, Initial residual = 0.0894152, Final residual = 0.00613005, No Iterations 2
smoothSolver:  Solving for Uz, Initial residual = 0.0541142, Final residual = 0.00389923, No Iterations 2
GAMG:  Solving for p, Initial residual = 0.154393, Final residual = 0.00818275, No Iterations 3
time step continuity errors : sum local = 2.38886e-05, global = -3.6771e-07, cumulative = -4.35136e-06
smoothSolver:  Solving for omega, Initial residual = 0.00220169, Final residual = 8.5244e-05, No Iterations 1
smoothSolver:  Solving for k, Initial residual = 0.126596, Final residual = 0.00513685, No Iterations 1
ExecutionTime = 3.8 s  ClockTime = 4 s

forces forcesFish write:
    Sum of forces
        Total    : (0.430935 0.0144326 -0.00137137)
        Pressure : (0.299413 0.0144567 -0.00141811)
        Viscous  : (0.131522 -2.41394e-05 4.67359e-05)
    Sum of moments
        Total    : (1.26766e-05 -0.000254526 0.00679043)
        Pressure : (1.23331e-05 -0.000254214 0.00673567)
        Viscous  : (3.43504e-07 -3.11133e-07 5.47598e-05)
    writing force and moment files.

Time = 6

smoothSolver:  Solving for Ux, Initial residual = 0.00108766, Final residual = 4.21656e-05, No Iterations 2
smoothSolver:  Solving for Uy, Initial residual = 0.0514938, Final residual = 0.00298646, No Iterations 2
smoothSolver:  Solving for Uz, Initial residual = 0.0290484, Final residual = 0.00170873, No Iterations 2
GAMG:  Solving for p, Initial residual = 0.0903231, Final residual = 0.00533328, No Iterations 3
time step continuity errors : sum local = 2.27424e-05, global = 3.2934e-07, cumulative = -4.02202e-06
smoothSolver:  Solving for omega, Initial residual = 0.00173271, Final residual = 6.87176e-05, No Iterations 1
smoothSolver:  Solving for k, Initial residual = 0.095698, Final residual = 0.0039527, No Iterations 1
ExecutionTime = 4.31 s  ClockTime = 5 s

forces forcesFish write:
    Sum of forces
        Total    : (0.23227 0.00862563 0.000500322)
        Pressure : (0.101028 0.00867456 0.000460096)
        Viscous  : (0.131242 -4.89296e-05 4.02254e-05)
    Sum of moments
        Total    : (1.22945e-05 -0.000210884 0.00197946)
        Pressure : (1.1922e-05 -0.000210749 0.00193169)
        Viscous  : (3.72541e-07 -1.34743e-07 4.77789e-05)
    writing force and moment files.

Time = 7

smoothSolver:  Solving for Ux, Initial residual = 0.000894268, Final residual = 2.87011e-05, No Iterations 2
smoothSolver:  Solving for Uy, Initial residual = 0.035436, Final residual = 0.00125238, No Iterations 2
smoothSolver:  Solving for Uz, Initial residual = 0.0226257, Final residual = 0.000807288, No Iterations 2
GAMG:  Solving for p, Initial residual = 0.058548, Final residual = 0.00327913, No Iterations 3
time step continuity errors : sum local = 1.74441e-05, global = 1.01646e-06, cumulative = -3.00557e-06
smoothSolver:  Solving for omega, Initial residual = 0.00139274, Final residual = 5.63429e-05, No Iterations 1
smoothSolver:  Solving for k, Initial residual = 0.0751745, Final residual = 0.00315496, No Iterations 1
ExecutionTime = 4.85 s  ClockTime = 5 s

forces forcesFish write:
    Sum of forces
        Total    : (0.0884417 0.0041217 0.00161757)
        Pressure : (-0.0424977 0.00419116 0.00158771)
        Viscous  : (0.130939 -6.94541e-05 2.98635e-05)
    Sum of moments
        Total    : (9.6651e-06 -8.93591e-05 -0.0014458)
        Pressure : (9.29747e-06 -8.97328e-05 -0.00148844)
        Viscous  : (3.6763e-07 3.73671e-07 4.26374e-05)
    writing force and moment files.

Time = 8

smoothSolver:  Solving for Ux, Initial residual = 0.000822716, Final residual = 2.55533e-05, No Iterations 2
smoothSolver:  Solving for Uy, Initial residual = 0.0374373, Final residual = 0.00181272, No Iterations 2
smoothSolver:  Solving for Uz, Initial residual = 0.0358257, Final residual = 0.00200259, No Iterations 2
GAMG:  Solving for p, Initial residual = 0.0484945, Final residual = 0.00462277, No Iterations 2
time step continuity errors : sum local = 2.76032e-05, global = 1.64642e-06, cumulative = -1.35915e-06
smoothSolver:  Solving for omega, Initial residual = 0.00113929, Final residual = 4.69018e-05, No Iterations 1
smoothSolver:  Solving for k, Initial residual = 0.06079, Final residual = 0.0025891, No Iterations 1
ExecutionTime = 5.33 s  ClockTime = 6 s

forces forcesFish write:
    Sum of forces
        Total    : (0.0181853 0.00130566 0.00121062)
        Pressure : (-0.112409 0.00138655 0.00119169)
        Viscous  : (0.130595 -8.08934e-05 1.89344e-05)
    Sum of moments
        Total    : (8.10021e-06 0.000163384 -0.00306469)
        Pressure : (7.76562e-06 0.000162395 -0.00310482)
        Viscous  : (3.34587e-07 9.88214e-07 4.01227e-05)
    writing force and moment files.

Time = 9

smoothSolver:  Solving for Ux, Initial residual = 0.000787344, Final residual = 2.46596e-05, No Iterations 2
smoothSolver:  Solving for Uy, Initial residual = 0.0355489, Final residual = 0.00192267, No Iterations 2
smoothSolver:  Solving for Uz, Initial residual = 0.0455576, Final residual = 0.00278122, No Iterations 2
GAMG:  Solving for p, Initial residual = 0.0520136, Final residual = 0.00377688, No Iterations 2
time step continuity errors : sum local = 2.34422e-05, global = 2.34418e-06, cumulative = 9.85024e-07
smoothSolver:  Solving for omega, Initial residual = 0.000945379, Final residual = 3.95043e-05, No Iterations 1
smoothSolver:  Solving for k, Initial residual = 0.0502698, Final residual = 0.00216981, No Iterations 1
ExecutionTime = 5.85 s  ClockTime = 6 s

forces forcesFish write:
    Sum of forces
        Total    : (0.00457073 8.05975e-05 0.000507098)
        Pressure : (-0.125612 0.000161959 0.00049699)
        Viscous  : (0.130182 -8.13619e-05 1.01083e-05)
    Sum of moments
        Total    : (4.4966e-06 0.000371004 -0.00327468)
        Pressure : (4.2151e-06 0.000369488 -0.0033148)
        Viscous  : (2.81498e-07 1.51565e-06 4.01104e-05)
    writing force and moment files.

Time = 10

smoothSolver:  Solving for Ux, Initial residual = 0.000734982, Final residual = 2.25415e-05, No Iterations 2
smoothSolver:  Solving for Uy, Initial residual = 0.0306448, Final residual = 0.0016754, No Iterations 2
smoothSolver:  Solving for Uz, Initial residual = 0.0483961, Final residual = 0.00297833, No Iterations 2
GAMG:  Solving for p, Initial residual = 0.0587461, Final residual = 0.00439812, No Iterations 2
time step continuity errors : sum local = 2.71086e-05, global = 2.98538e-06, cumulative = 3.97041e-06
smoothSolver:  Solving for omega, Initial residual = 0.000793698, Final residual = 3.36214e-05, No Iterations 1
smoothSolver:  Solving for k, Initial residual = 0.042339, Final residual = 0.00184955, No Iterations 1
ExecutionTime = 6.33 s  ClockTime = 7 s

forces forcesFish write:
    Sum of forces
        Total    : (0.0292468 -3.34847e-05 -2.26296e-05)
        Pressure : (-0.100424 3.84854e-05 -2.75688e-05)
        Viscous  : (0.129671 -7.19701e-05 4.93927e-06)
    Sum of moments
        Total    : (-6.14916e-07 0.000442911 -0.00252146)
        Pressure : (-8.35343e-07 0.000441045 -0.00256339)
        Viscous  : (2.20427e-07 1.86521e-06 4.19293e-05)
    writing force and moment files.

Time = 11

smoothSolver:  Solving for Ux, Initial residual = 0.000652686, Final residual = 1.91264e-05, No Iterations 2
smoothSolver:  Solving for Uy, Initial residual = 0.0252421, Final residual = 0.00130293, No Iterations 2
smoothSolver:  Solving for Uz, Initial residual = 0.0439975, Final residual = 0.00256911, No Iterations 2
GAMG:  Solving for p, Initial residual = 0.0612698, Final residual = 0.00489831, No Iterations 2
time step continuity errors : sum local = 2.89934e-05, global = 3.32951e-06, cumulative = 7.29992e-06
smoothSolver:  Solving for omega, Initial residual = 0.000672815, Final residual = 2.88725e-05, No Iterations 1
smoothSolver:  Solving for k, Initial residual = 0.0361511, Final residual = 0.00159621, No Iterations 1
ExecutionTime = 6.84 s  ClockTime = 7 s

forces forcesFish write:
    Sum of forces
        Total    : (0.0742417 0.000382352 -0.000262311)
        Pressure : (-0.0548053 0.000437583 -0.00026616)
        Viscous  : (0.129047 -5.52304e-05 3.84861e-06)
    Sum of moments
        Total    : (-5.9633e-06 0.000386237 -0.00127732)
        Pressure : (-6.1262e-06 0.000384253 -0.0013223)
        Viscous  : (1.62904e-07 1.98419e-06 4.49748e-05)
    writing force and moment files.

Time = 12

smoothSolver:  Solving for Ux, Initial residual = 0.000556749, Final residual = 1.52983e-05, No Iterations 2
smoothSolver:  Solving for Uy, Initial residual = 0.0211346, Final residual = 0.000912651, No Iterations 2
smoothSolver:  Solving for Uz, Initial residual = 0.0346391, Final residual = 0.00171086, No Iterations 2
GAMG:  Solving for p, Initial residual = 0.0609456, Final residual = 0.00504006, No Iterations 2
time step continuity errors : sum local = 2.77971e-05, global = 3.36101e-06, cumulative = 1.06609e-05
smoothSolver:  Solving for omega, Initial residual = 0.000574992, Final residual = 2.49613e-05, No Iterations 1
smoothSolver:  Solving for k, Initial residual = 0.0312368, Final residual = 0.00139224, No Iterations 1
ExecutionTime = 7.37 s  ClockTime = 8 s

forces forcesFish write:
    Sum of forces
        Total    : (0.12335 0.000883066 -0.000211027)
        Pressure : (-0.00497091 0.000917604 -0.000217229)
        Viscous  : (0.128321 -3.45386e-05 6.20228e-06)
    Sum of moments
        Total    : (-1.03217e-05 0.000233078 1.96422e-05)
        Pressure : (-1.04389e-05 0.000231199 -2.90055e-05)
        Viscous  : (1.17221e-07 1.87896e-06 4.86477e-05)
    writing force and moment files.

Time = 13

smoothSolver:  Solving for Ux, Initial residual = 0.000470921, Final residual = 1.22911e-05, No Iterations 2
smoothSolver:  Solving for Uy, Initial residual = 0.0212411, Final residual = 0.000728105, No Iterations 2
smoothSolver:  Solving for Uz, Initial residual = 0.0264625, Final residual = 0.000924574, No Iterations 2
GAMG:  Solving for p, Initial residual = 0.0580234, Final residual = 0.00472334, No Iterations 2
time step continuity errors : sum local = 2.38254e-05, global = 3.09636e-06, cumulative = 1.37573e-05
smoothSolver:  Solving for omega, Initial residual = 0.000494852, Final residual = 2.16961e-05, No Iterations 1
smoothSolver:  Solving for k, Initial residual = 0.027219, Final residual = 0.001223, No Iterations 1
ExecutionTime = 7.9 s  ClockTime = 8 s

forces forcesFish write:
    Sum of forces
        Total    : (0.164591 0.00127966 5.63035e-05)
        Pressure : (0.0370735 0.00129299 4.56434e-05)
        Viscous  : (0.127518 -1.33323e-05 1.06601e-05)
    Sum of moments
        Total    : (-1.28842e-05 3.26415e-05 0.00107475)
        Pressure : (-1.29735e-05 3.10297e-05 0.00102238)
        Viscous  : (8.92322e-08 1.61173e-06 5.2368e-05)
    writing force and moment files.

Time = 14

smoothSolver:  Solving for Ux, Initial residual = 0.000411237, Final residual = 1.06658e-05, No Iterations 2
smoothSolver:  Solving for Uy, Initial residual = 0.0279663, Final residual = 0.00102321, No Iterations 2
smoothSolver:  Solving for Uz, Initial residual = 0.0262135, Final residual = 0.000991363, No Iterations 2
GAMG:  Solving for p, Initial residual = 0.0564123, Final residual = 0.004059, No Iterations 2
time step continuity errors : sum local = 1.86928e-05, global = 2.60612e-06, cumulative = 1.63634e-05
smoothSolver:  Solving for omega, Initial residual = 0.000428359, Final residual = 1.8939e-05, No Iterations 1
smoothSolver:  Solving for k, Initial residual = 0.0239107, Final residual = 0.0010817, No Iterations 1
ExecutionTime = 8.41 s  ClockTime = 9 s

forces forcesFish write:
    Sum of forces
        Total    : (0.191483 0.00157114 0.000422132)
        Pressure : (0.0648151 0.00156571 0.000406423)
        Viscous  : (0.126668 5.43804e-06 1.57093e-05)
    Sum of moments
        Total    : (-1.33147e-05 -0.000160701 0.00174868)
        Pressure : (-1.33947e-05 -0.000161974 0.00169299)
        Viscous  : (7.99909e-08 1.27343e-06 5.569e-05)
    writing force and moment files.

Time = 15

smoothSolver:  Solving for Ux, Initial residual = 0.000387798, Final residual = 9.58334e-06, No Iterations 2
smoothSolver:  Solving for Uy, Initial residual = 0.0403165, Final residual = 0.00163039, No Iterations 2
smoothSolver:  Solving for Uz, Initial residual = 0.026809, Final residual = 0.00117645, No Iterations 2
GAMG:  Solving for p, Initial residual = 0.0573174, Final residual = 0.00357968, No Iterations 2
time step continuity errors : sum local = 1.53516e-05, global = 2.06445e-06, cumulative = 1.84279e-05
smoothSolver:  Solving for omega, Initial residual = 0.000372512, Final residual = 1.6586e-05, No Iterations 1
smoothSolver:  Solving for k, Initial residual = 0.0211164, Final residual = 0.000960786, No Iterations 1
ExecutionTime = 8.92 s  ClockTime = 9 s

forces forcesFish write:
    Sum of forces
        Total    : (0.202624 0.00183893 0.000797328)
        Pressure : (0.0768202 0.00181903 0.000777248)
        Viscous  : (0.125803 1.99012e-05 2.008e-05)
    Sum of moments
        Total    : (-1.16749e-05 -0.000305896 0.00203242)
        Pressure : (-1.17613e-05 -0.000306843 0.00197409)
        Viscous  : (8.6324e-08 9.47519e-07 5.83282e-05)
    writing force and moment files.

Time = 16

smoothSolver:  Solving for Ux, Initial residual = 0.000367969, Final residual = 8.64965e-06, No Iterations 2
smoothSolver:  Solving for Uy, Initial residual = 0.03697, Final residual = 0.00149107, No Iterations 2
smoothSolver:  Solving for Uz, Initial residual = 0.0250327, Final residual = 0.00111078, No Iterations 2
GAMG:  Solving for p, Initial residual = 0.0605046, Final residual = 0.00378588, No Iterations 2
time step continuity errors : sum local = 1.56861e-05, global = 1.45183e-06, cumulative = 1.98797e-05
smoothSolver:  Solving for omega, Initial residual = 0.000325141, Final residual = 1.45626e-05, No Iterations 1
smoothSolver:  Solving for k, Initial residual = 0.0187544, Final residual = 0.000857457, No Iterations 1
ExecutionTime = 9.45 s  ClockTime = 10 s

forces forcesFish write:
    Sum of forces
        Total    : (0.201481 0.00213949 0.00104345)
        Pressure : (0.0765341 0.00211006 0.00102055)
        Viscous  : (0.124947 2.94294e-05 2.29037e-05)
    Sum of moments
        Total    : (-8.35095e-06 -0.000370729 0.0020253)
        Pressure : (-8.45366e-06 -0.000371425 0.00196506)
        Viscous  : (1.02716e-07 6.95137e-07 6.02424e-05)
    writing force and moment files.

Time = 17

smoothSolver:  Solving for Ux, Initial residual = 0.000338, Final residual = 7.66707e-06, No Iterations 2
smoothSolver:  Solving for Uy, Initial residual = 0.0273617, Final residual = 0.00102971, No Iterations 2
smoothSolver:  Solving for Uz, Initial residual = 0.021606, Final residual = 0.000889216, No Iterations 2
GAMG:  Solving for p, Initial residual = 0.0615039, Final residual = 0.00363276, No Iterations 2
time step continuity errors : sum local = 1.49995e-05, global = 5.50505e-07, cumulative = 2.04302e-05
smoothSolver:  Solving for omega, Initial residual = 0.00028458, Final residual = 1.27965e-05, No Iterations 1
smoothSolver:  Solving for k, Initial residual = 0.0167245, Final residual = 0.000767837, No Iterations 1
ExecutionTime = 9.97 s  ClockTime = 10 s

forces forcesFish write:
    Sum of forces
        Total    : (0.192859 0.00253422 0.00103288)
        Pressure : (0.0687391 0.00249967 0.00100896)
        Viscous  : (0.12412 3.45475e-05 2.39153e-05)
    Sum of moments
        Total    : (-4.15742e-06 -0.000343392 0.00184229)
        Pressure : (-4.27908e-06 -0.000343943 0.0017808)
        Viscous  : (1.21657e-07 5.51247e-07 6.14896e-05)
    writing force and moment files.

Time = 18

smoothSolver:  Solving for Ux, Initial residual = 0.000306872, Final residual = 6.71883e-06, No Iterations 2
smoothSolver:  Solving for Uy, Initial residual = 0.0211096, Final residual = 0.000689725, No Iterations 2
smoothSolver:  Solving for Uz, Initial residual = 0.0176252, Final residual = 0.000620754, No Iterations 2
GAMG:  Solving for p, Initial residual = 0.0584948, Final residual = 0.00325188, No Iterations 2
time step continuity errors : sum local = 1.37196e-05, global = -3.3119e-07, cumulative = 2.0099e-05
smoothSolver:  Solving for omega, Initial residual = 0.00024964, Final residual = 1.12526e-05, No Iterations 1
smoothSolver:  Solving for k, Initial residual = 0.0149729, Final residual = 0.00068987, No Iterations 1
ExecutionTime = 10.52 s  ClockTime = 11 s

forces forcesFish write:
    Sum of forces
        Total    : (0.180824 0.00307327 0.000759647)
        Pressure : (0.0574895 0.00303688 0.000736399)
        Viscous  : (0.123334 3.63817e-05 2.32477e-05)
    Sum of moments
        Total    : (2.1292e-07 -0.000236017 0.00158671)
        Pressure : (7.58153e-08 -0.000236543 0.00152456)
        Viscous  : (1.37105e-07 5.25904e-07 6.21464e-05)
    writing force and moment files.

Time = 19

smoothSolver:  Solving for Ux, Initial residual = 0.000277841, Final residual = 5.84796e-06, No Iterations 2
smoothSolver:  Solving for Uy, Initial residual = 0.0171327, Final residual = 0.000438171, No Iterations 2
smoothSolver:  Solving for Uz, Initial residual = 0.0148057, Final residual = 0.000399095, No Iterations 2
GAMG:  Solving for p, Initial residual = 0.0525125, Final residual = 0.00282051, No Iterations 2
time step continuity errors : sum local = 1.23468e-05, global = -1.05258e-06, cumulative = 1.90464e-05
smoothSolver:  Solving for omega, Initial residual = 0.000219401, Final residual = 9.90423e-06, No Iterations 1
smoothSolver:  Solving for k, Initial residual = 0.0134513, Final residual = 0.000621613, No Iterations 1
ExecutionTime = 11.06 s  ClockTime = 11 s

forces forcesFish write:
    Sum of forces
        Total    : (0.168948 0.00370906 0.000299375)
        Pressure : (0.0463563 0.00367274 0.000277921)
        Viscous  : (0.122591 3.63221e-05 2.14538e-05)
    Sum of moments
        Total    : (4.03423e-06 -8.09846e-05 0.00134063)
        Pressure : (3.88887e-06 -8.15837e-05 0.00127825)
        Viscous  : (1.45365e-07 5.99061e-07 6.23825e-05)
    writing force and moment files.

Time = 20

smoothSolver:  Solving for Ux, Initial residual = 0.000247538, Final residual = 5.09489e-06, No Iterations 2
smoothSolver:  Solving for Uy, Initial residual = 0.0154879, Final residual = 0.000348508, No Iterations 2
smoothSolver:  Solving for Uz, Initial residual = 0.013854, Final residual = 0.00037168, No Iterations 2
GAMG:  Solving for p, Initial residual = 0.0450255, Final residual = 0.00240857, No Iterations 2
time step continuity errors : sum local = 1.09479e-05, global = -1.61179e-06, cumulative = 1.74346e-05
smoothSolver:  Solving for omega, Initial residual = 0.000193128, Final residual = 8.72872e-06, No Iterations 1
smoothSolver:  Solving for k, Initial residual = 0.0121145, Final residual = 0.000561184, No Iterations 1
ExecutionTime = 11.57 s  ClockTime = 12 s

forces forcesFish write:
    Sum of forces
        Total    : (0.159628 0.00431948 -0.000227596)
        Pressure : (0.0377402 0.00428368 -0.000246779)
        Viscous  : (0.121888 3.57992e-05 1.91829e-05)
    Sum of moments
        Total    : (6.7169e-06 8.05987e-05 0.00114949)
        Pressure : (6.57147e-06 7.98653e-05 0.0010871)
        Viscous  : (1.45431e-07 7.33361e-07 6.23946e-05)
    writing force and moment files.

Time = 21

smoothSolver:  Solving for Ux, Initial residual = 0.000215972, Final residual = 4.5214e-06, No Iterations 2
smoothSolver:  Solving for Uy, Initial residual = 0.0154112, Final residual = 0.000384653, No Iterations 2
smoothSolver:  Solving for Uz, Initial residual = 0.0135956, Final residual = 0.000421653, No Iterations 2
GAMG:  Solving for p, Initial residual = 0.0399086, Final residual = 0.00212451, No Iterations 2
time step continuity errors : sum local = 9.91984e-06, global = -2.07027e-06, cumulative = 1.53644e-05
smoothSolver:  Solving for omega, Initial residual = 0.0001702, Final residual = 7.70194e-06, No Iterations 1
smoothSolver:  Solving for k, Initial residual = 0.0109409, Final residual = 0.000507747, No Iterations 1
ExecutionTime = 12.1 s  ClockTime = 12 s

forces forcesFish write:
    Sum of forces
        Total    : (0.153893 0.00476313 -0.000697092)
        Pressure : (0.0326748 0.0047273 -0.000714069)
        Viscous  : (0.121218 3.58332e-05 1.69778e-05)
    Sum of moments
        Total    : (7.92545e-06 0.000211256 0.0010245)
        Pressure : (7.78685e-06 0.000210378 0.00096214)
        Viscous  : (1.38599e-07 8.78003e-07 6.23612e-05)
    writing force and moment files.

Time = 22

smoothSolver:  Solving for Ux, Initial residual = 0.000186101, Final residual = 4.0693e-06, No Iterations 2
smoothSolver:  Solving for Uy, Initial residual = 0.0155017, Final residual = 0.000420384, No Iterations 2
smoothSolver:  Solving for Uz, Initial residual = 0.0131726, Final residual = 0.000447224, No Iterations 2
GAMG:  Solving for p, Initial residual = 0.0371586, Final residual = 0.00205937, No Iterations 2
time step continuity errors : sum local = 9.73789e-06, global = -2.39821e-06, cumulative = 1.29662e-05
smoothSolver:  Solving for omega, Initial residual = 0.000150094, Final residual = 6.80295e-06, No Iterations 1
smoothSolver:  Solving for k, Initial residual = 0.00989478, Final residual = 0.000459773, No Iterations 1
ExecutionTime = 12.61 s  ClockTime = 13 s

forces forcesFish write:
    Sum of forces
        Total    : (0.151526 0.00496081 -0.0010309)
        Pressure : (0.0309515 0.00492391 -0.00104621)
        Viscous  : (0.120574 3.69042e-05 1.53152e-05)
    Sum of moments
        Total    : (7.66228e-06 0.00029099 0.000954037)
        Pressure : (7.5353e-06 0.000289999 0.00089165)
        Viscous  : (1.26982e-07 9.9162e-07 6.23864e-05)
    writing force and moment files.

Time = 23

smoothSolver:  Solving for Ux, Initial residual = 0.000161542, Final residual = 3.65415e-06, No Iterations 2
smoothSolver:  Solving for Uy, Initial residual = 0.0151575, Final residual = 0.000406756, No Iterations 2
smoothSolver:  Solving for Uz, Initial residual = 0.0123491, Final residual = 0.000412175, No Iterations 2
GAMG:  Solving for p, Initial residual = 0.0355354, Final residual = 0.0019449, No Iterations 2
time step continuity errors : sum local = 9.18835e-06, global = -2.48456e-06, cumulative = 1.04816e-05
smoothSolver:  Solving for omega, Initial residual = 0.000132395, Final residual = 6.01593e-06, No Iterations 1
smoothSolver:  Solving for k, Initial residual = 0.00896341, Final residual = 0.000416783, No Iterations 1
ExecutionTime = 13.12 s  ClockTime = 13 s

forces forcesFish write:
    Sum of forces
        Total    : (0.151588 0.00491706 -0.00120347)
        Pressure : (0.0316375 0.00487798 -0.00121796)
        Viscous  : (0.119951 3.90844e-05 1.44918e-05)
    Sum of moments
        Total    : (6.25886e-06 0.000319112 0.000915819)
        Pressure : (6.14561e-06 0.000318062 0.00085331)
        Viscous  : (1.13251e-07 1.05069e-06 6.25086e-05)
    writing force and moment files.

Time = 24

smoothSolver:  Solving for Ux, Initial residual = 0.000144232, Final residual = 3.25064e-06, No Iterations 2
smoothSolver:  Solving for Uy, Initial residual = 0.0143082, Final residual = 0.000343919, No Iterations 2
smoothSolver:  Solving for Uz, Initial residual = 0.0112124, Final residual = 0.00033104, No Iterations 2
GAMG:  Solving for p, Initial residual = 0.03374, Final residual = 0.00175189, No Iterations 2
time step continuity errors : sum local = 8.17365e-06, global = -2.38698e-06, cumulative = 8.09462e-06
smoothSolver:  Solving for omega, Initial residual = 0.000116756, Final residual = 5.32182e-06, No Iterations 1
smoothSolver:  Solving for k, Initial residual = 0.0081278, Final residual = 0.000377988, No Iterations 1
ExecutionTime = 13.65 s  ClockTime = 14 s

forces forcesFish write:
    Sum of forces
        Total    : (0.153086 0.00463037 -0.00118511)
        Pressure : (0.033744 0.00458827 -0.00119957)
        Viscous  : (0.119342 4.21072e-05 1.44544e-05)
    Sum of moments
        Total    : (4.08923e-06 0.000294947 0.000888069)
        Pressure : (3.98888e-06 0.000293904 0.000825333)
        Viscous  : (1.00354e-07 1.04345e-06 6.27354e-05)
    writing force and moment files.

Time = 25

smoothSolver:  Solving for Ux, Initial residual = 0.000134289, Final residual = 2.88187e-06, No Iterations 2
smoothSolver:  Solving for Uy, Initial residual = 0.0131104, Final residual = 0.000270771, No Iterations 2
smoothSolver:  Solving for Uz, Initial residual = 0.00994879, Final residual = 0.000232005, No Iterations 2
GAMG:  Solving for p, Initial residual = 0.0322998, Final residual = 0.00156719, No Iterations 2
time step continuity errors : sum local = 7.16578e-06, global = -2.15652e-06, cumulative = 5.9381e-06
smoothSolver:  Solving for omega, Initial residual = 0.000102875, Final residual = 4.70611e-06, No Iterations 1
smoothSolver:  Solving for k, Initial residual = 0.00737174, Final residual = 0.000342717, No Iterations 1
ExecutionTime = 14.14 s  ClockTime = 14 s

forces forcesFish write:
    Sum of forces
        Total    : (0.155068 0.00413954 -0.00098218)
        Pressure : (0.0363227 0.00409395 -0.000997223)
        Viscous  : (0.118745 4.55808e-05 1.5043e-05)
    Sum of moments
        Total    : (1.61244e-06 0.000226102 0.000856421)
        Pressure : (1.5224e-06 0.00022513 0.000793364)
        Viscous  : (9.00375e-08 9.71695e-07 6.30572e-05)
    writing force and moment files.

Time = 26

smoothSolver:  Solving for Ux, Initial residual = 0.000132615, Final residual = 1.31029e-05, No Iterations 1
smoothSolver:  Solving for Uy, Initial residual = 0.0116971, Final residual = 0.000218219, No Iterations 2
smoothSolver:  Solving for Uz, Initial residual = 0.00902589, Final residual = 0.000167115, No Iterations 2
GAMG:  Solving for p, Initial residual = 0.030822, Final residual = 0.0013878, No Iterations 2
time step continuity errors : sum local = 6.20307e-06, global = -1.81301e-06, cumulative = 4.12509e-06
smoothSolver:  Solving for omega, Initial residual = 9.05108e-05, Final residual = 4.15655e-06, No Iterations 1
smoothSolver:  Solving for k, Initial residual = 0.00668871, Final residual = 0.000310742, No Iterations 1
ExecutionTime = 14.62 s  ClockTime = 15 s

forces forcesFish write:
    Sum of forces
        Total    : (0.156873 0.00354493 -0.00065102)
        Pressure : (0.0386696 0.00349576 -0.00066702)
        Viscous  : (0.118204 4.91703e-05 1.60007e-05)
    Sum of moments
        Total    : (-6.87075e-07 0.000130924 0.000819681)
        Pressure : (-7.70055e-07 0.000130068 0.00075618)
        Viscous  : (8.29807e-08 8.56262e-07 6.35006e-05)
    writing force and moment files.

Time = 27

smoothSolver:  Solving for Ux, Initial residual = 0.000131741, Final residual = 1.23474e-05, No Iterations 1
smoothSolver:  Solving for Uy, Initial residual = 0.0100748, Final residual = 0.00018698, No Iterations 2
smoothSolver:  Solving for Uz, Initial residual = 0.00838888, Final residual = 0.00082185, No Iterations 1
GAMG:  Solving for p, Initial residual = 0.0286404, Final residual = 0.00124992, No Iterations 2
time step continuity errors : sum local = 5.47861e-06, global = -1.39425e-06, cumulative = 2.73083e-06
smoothSolver:  Solving for omega, Initial residual = 7.94761e-05, Final residual = 3.66709e-06, No Iterations 1
smoothSolver:  Solving for k, Initial residual = 0.00606494, Final residual = 0.000281462, No Iterations 1
ExecutionTime = 15.1 s  ClockTime = 15 s

forces forcesFish write:
    Sum of forces
        Total    : (0.158002 0.0029683 -0.000272864)
        Pressure : (0.0403271 0.00291577 -0.000289836)
        Viscous  : (0.117675 5.2527e-05 1.6972e-05)
    Sum of moments
        Total    : (-2.45244e-06 3.2732e-05 0.000782103)
        Pressure : (-2.53149e-06 3.1995e-05 0.000718154)
        Viscous  : (7.90449e-08 7.3702e-07 6.39493e-05)
    writing force and moment files.

Time = 28

smoothSolver:  Solving for Ux, Initial residual = 0.000127185, Final residual = 1.15058e-05, No Iterations 1
smoothSolver:  Solving for Uy, Initial residual = 0.00842931, Final residual = 0.000163858, No Iterations 2
smoothSolver:  Solving for Uz, Initial residual = 0.0078051, Final residual = 0.00015213, No Iterations 2
GAMG:  Solving for p, Initial residual = 0.02672, Final residual = 0.00119629, No Iterations 2
time step continuity errors : sum local = 5.17417e-06, global = -9.53899e-07, cumulative = 1.77693e-06
smoothSolver:  Solving for omega, Initial residual = 6.96114e-05, Final residual = 3.23091e-06, No Iterations 1
smoothSolver:  Solving for k, Initial residual = 0.00549508, Final residual = 0.000254672, No Iterations 1
ExecutionTime = 15.6 s  ClockTime = 16 s

forces forcesFish write:
    Sum of forces
        Total    : (0.158329 0.00249493 6.70474e-05)
        Pressure : (0.0411694 0.0024395 4.91091e-05)
        Viscous  : (0.11716 5.54318e-05 1.79383e-05)
    Sum of moments
        Total    : (-3.41016e-06 -4.9274e-05 0.000748554)
        Pressure : (-3.48629e-06 -4.98783e-05 0.000684201)
        Viscous  : (7.6124e-08 6.04258e-07 6.43528e-05)
    writing force and moment files.

Time = 29

smoothSolver:  Solving for Ux, Initial residual = 0.000119316, Final residual = 1.06124e-05, No Iterations 1
smoothSolver:  Solving for Uy, Initial residual = 0.00699401, Final residual = 0.000138114, No Iterations 2
smoothSolver:  Solving for Uz, Initial residual = 0.00685464, Final residual = 0.000139093, No Iterations 2
GAMG:  Solving for p, Initial residual = 0.0252618, Final residual = 0.00121553, No Iterations 2
time step continuity errors : sum local = 5.23498e-06, global = -4.71064e-07, cumulative = 1.30587e-06
smoothSolver:  Solving for omega, Initial residual = 6.07829e-05, Final residual = 2.84145e-06, No Iterations 1
smoothSolver:  Solving for k, Initial residual = 0.00497376, Final residual = 0.000230155, No Iterations 1
ExecutionTime = 16.14 s  ClockTime = 16 s

forces forcesFish write:
    Sum of forces
        Total    : (0.157963 0.00216658 0.000326907)
        Pressure : (0.0413041 0.00210873 0.000308267)
        Viscous  : (0.116659 5.78567e-05 1.86405e-05)
    Sum of moments
        Total    : (-3.57378e-06 -0.000106417 0.000722893)
        Pressure : (-3.64738e-06 -0.000106906 0.000658217)
        Viscous  : (7.35973e-08 4.89459e-07 6.46763e-05)
    writing force and moment files.

Time = 30

smoothSolver:  Solving for Ux, Initial residual = 0.000109966, Final residual = 9.73814e-06, No Iterations 1
smoothSolver:  Solving for Uy, Initial residual = 0.00586672, Final residual = 0.000579994, No Iterations 1
smoothSolver:  Solving for Uz, Initial residual = 0.00606108, Final residual = 0.000116256, No Iterations 2
GAMG:  Solving for p, Initial residual = 0.0234076, Final residual = 0.00114595, No Iterations 2
time step continuity errors : sum local = 4.95139e-06, global = 2.65456e-08, cumulative = 1.33242e-06
smoothSolver:  Solving for omega, Initial residual = 5.28794e-05, Final residual = 2.49297e-06, No Iterations 1
smoothSolver:  Solving for k, Initial residual = 0.00449215, Final residual = 0.000207532, No Iterations 1
ExecutionTime = 16.67 s  ClockTime = 17 s

forces forcesFish write:
    Sum of forces
        Total    : (0.157132 0.00196419 0.000498248)
        Pressure : (0.0409573 0.00190471 0.000479231)
        Viscous  : (0.116174 5.94743e-05 1.90172e-05)
    Sum of moments
        Total    : (-3.1188e-06 -0.000139141 0.000702116)
        Pressure : (-3.18947e-06 -0.000139543 0.000637363)
        Viscous  : (7.06629e-08 4.01652e-07 6.47523e-05)
    writing force and moment files.

Time = 31

smoothSolver:  Solving for Ux, Initial residual = 0.000101481, Final residual = 8.97495e-06, No Iterations 1
smoothSolver:  Solving for Uy, Initial residual = 0.0051015, Final residual = 0.000468229, No Iterations 1
smoothSolver:  Solving for Uz, Initial residual = 0.0054448, Final residual = 0.000503805, No Iterations 1
GAMG:  Solving for p, Initial residual = 0.0211523, Final residual = 0.00101735, No Iterations 2
time step continuity errors : sum local = 4.42922e-06, global = 4.43115e-07, cumulative = 1.77553e-06
smoothSolver:  Solving for omega, Initial residual = 4.58259e-05, Final residual = 2.18449e-06, No Iterations 1
smoothSolver:  Solving for k, Initial residual = 0.00404868, Final residual = 0.000186752, No Iterations 1
ExecutionTime = 17.15 s  ClockTime = 17 s

forces forcesFish write:
    Sum of forces
        Total    : (0.156067 0.00188281 0.000579131)
        Pressure : (0.0403598 0.00182196 0.000560063)
        Viscous  : (0.115707 6.08507e-05 1.90677e-05)
    Sum of moments
        Total    : (-2.25363e-06 -0.000149172 0.000689487)
        Pressure : (-2.32053e-06 -0.000149528 0.000624709)
        Viscous  : (6.68968e-08 3.55127e-07 6.47781e-05)
    writing force and moment files.

Time = 32

smoothSolver:  Solving for Ux, Initial residual = 9.5289e-05, Final residual = 8.37706e-06, No Iterations 1
smoothSolver:  Solving for Uy, Initial residual = 0.0045465, Final residual = 0.000372048, No Iterations 1
smoothSolver:  Solving for Uz, Initial residual = 0.00510594, Final residual = 0.000432271, No Iterations 1
GAMG:  Solving for p, Initial residual = 0.0193225, Final residual = 0.000883657, No Iterations 2
time step continuity errors : sum local = 3.88313e-06, global = 7.42757e-07, cumulative = 2.51829e-06
smoothSolver:  Solving for omega, Initial residual = 3.95444e-05, Final residual = 1.913e-06, No Iterations 1
smoothSolver:  Solving for k, Initial residual = 0.00363966, Final residual = 0.00016766, No Iterations 1
ExecutionTime = 17.66 s  ClockTime = 18 s

forces forcesFish write:
    Sum of forces
        Total    : (0.154939 0.00190993 0.00056932)
        Pressure : (0.0396826 0.00184793 0.000550368)
        Viscous  : (0.115256 6.19928e-05 1.89524e-05)
    Sum of moments
        Total    : (-1.16203e-06 -0.000138324 0.000686028)
        Pressure : (-1.2239e-06 -0.000138652 0.000621276)
        Viscous  : (6.18706e-08 3.28267e-07 6.47519e-05)
    writing force and moment files.

Time = 33

smoothSolver:  Solving for Ux, Initial residual = 8.95745e-05, Final residual = 7.86873e-06, No Iterations 1
smoothSolver:  Solving for Uy, Initial residual = 0.0041829, Final residual = 0.000308629, No Iterations 1
smoothSolver:  Solving for Uz, Initial residual = 0.00485337, Final residual = 0.000395317, No Iterations 1
GAMG:  Solving for p, Initial residual = 0.0177849, Final residual = 0.000746994, No Iterations 2
time step continuity errors : sum local = 3.315e-06, global = 8.57429e-07, cumulative = 3.37572e-06
smoothSolver:  Solving for omega, Initial residual = 3.39675e-05, Final residual = 1.67407e-06, No Iterations 1
smoothSolver:  Solving for k, Initial residual = 0.00326001, Final residual = 0.000150037, No Iterations 1
ExecutionTime = 18.16 s  ClockTime = 18 s

forces forcesFish write:
    Sum of forces
        Total    : (0.153876 0.00201808 0.000482742)
        Pressure : (0.039053 0.0019551 0.000463983)
        Viscous  : (0.114823 6.29723e-05 1.87587e-05)
    Sum of moments
        Total    : (-3.91655e-08 -0.000111247 0.00069034)
        Pressure : (-9.4919e-08 -0.000111558 0.000625652)
        Viscous  : (5.57535e-08 3.11409e-07 6.46873e-05)
    writing force and moment files.

Time = 34

smoothSolver:  Solving for Ux, Initial residual = 8.19481e-05, Final residual = 7.31107e-06, No Iterations 1
smoothSolver:  Solving for Uy, Initial residual = 0.00389323, Final residual = 0.000273935, No Iterations 1
smoothSolver:  Solving for Uz, Initial residual = 0.00460665, Final residual = 0.000371756, No Iterations 1
GAMG:  Solving for p, Initial residual = 0.0163242, Final residual = 0.000617515, No Iterations 2
time step continuity errors : sum local = 2.76589e-06, global = 7.53399e-07, cumulative = 4.12912e-06
smoothSolver:  Solving for omega, Initial residual = 2.90375e-05, Final residual = 1.46429e-06, No Iterations 1
smoothSolver:  Solving for k, Initial residual = 0.00290905, Final residual = 0.000133861, No Iterations 1
ExecutionTime = 18.67 s  ClockTime = 19 s

forces forcesFish write:
    Sum of forces
        Total    : (0.15295 0.00217123 0.000342983)
        Pressure : (0.038544 0.00210733 0.000324417)
        Viscous  : (0.114406 6.38977e-05 1.8566e-05)
    Sum of moments
        Total    : (9.46834e-07 -7.42514e-05 0.00069907)
        Pressure : (8.97906e-07 -7.45491e-05 0.000634476)
        Viscous  : (4.89275e-08 2.97672e-07 6.45939e-05)
    writing force and moment files.

Time = 35

smoothSolver:  Solving for Ux, Initial residual = 7.13803e-05, Final residual = 6.65455e-06, No Iterations 1
smoothSolver:  Solving for Uy, Initial residual = 0.00360801, Final residual = 0.0002544, No Iterations 1
smoothSolver:  Solving for Uz, Initial residual = 0.00429643, Final residual = 0.000345212, No Iterations 1
GAMG:  Solving for p, Initial residual = 0.0149272, Final residual = 0.000543936, No Iterations 2
time step continuity errors : sum local = 2.45571e-06, global = 5.69116e-07, cumulative = 4.69823e-06
smoothSolver:  Solving for omega, Initial residual = 2.46988e-05, Final residual = 1.2805e-06, No Iterations 1
smoothSolver:  Solving for k, Initial residual = 0.00258503, Final residual = 0.000119056, No Iterations 1
ExecutionTime = 19.18 s  ClockTime = 19 s

forces forcesFish write:
    Sum of forces
        Total    : (0.152185 0.0023278 0.000180298)
        Pressure : (0.0381799 0.00226299 0.000161878)
        Viscous  : (0.114005 6.48099e-05 1.84201e-05)
    Sum of moments
        Total    : (1.6676e-06 -3.47595e-05 0.000707223)
        Pressure : (1.62545e-06 -3.50406e-05 0.000642742)
        Viscous  : (4.21569e-08 2.81059e-07 6.44814e-05)
    writing force and moment files.

Time = 36

smoothSolver:  Solving for Ux, Initial residual = 6.11993e-05, Final residual = 5.97034e-06, No Iterations 1
smoothSolver:  Solving for Uy, Initial residual = 0.00328915, Final residual = 0.000235958, No Iterations 1
smoothSolver:  Solving for Uz, Initial residual = 0.00392964, Final residual = 0.000318288, No Iterations 1
GAMG:  Solving for p, Initial residual = 0.0137634, Final residual = 0.000488344, No Iterations 2
time step continuity errors : sum local = 2.21693e-06, global = 5.30222e-07, cumulative = 5.22845e-06
smoothSolver:  Solving for omega, Initial residual = 2.09027e-05, Final residual = 1.12016e-06, No Iterations 1
smoothSolver:  Solving for k, Initial residual = 0.00228575, Final residual = 0.000105519, No Iterations 1
ExecutionTime = 19.72 s  ClockTime = 20 s

forces forcesFish write:
    Sum of forces
        Total    : (0.151571 0.00244656 2.91332e-05)
        Pressure : (0.0379518 0.0023809 1.07757e-05)
        Viscous  : (0.113619 6.56619e-05 1.83575e-05)
    Sum of moments
        Total    : (2.04799e-06 -5.68886e-07 0.000709423)
        Pressure : (2.01192e-06 -8.26473e-07 0.000645069)
        Viscous  : (3.6063e-08 2.57587e-07 6.43544e-05)
    writing force and moment files.

Time = 37

smoothSolver:  Solving for Ux, Initial residual = 5.59644e-05, Final residual = 5.52873e-06, No Iterations 1
smoothSolver:  Solving for Uy, Initial residual = 0.00297109, Final residual = 0.00021453, No Iterations 1
smoothSolver:  Solving for Uz, Initial residual = 0.00354798, Final residual = 0.000280869, No Iterations 1
GAMG:  Solving for p, Initial residual = 0.0127857, Final residual = 0.000469499, No Iterations 2
time step continuity errors : sum local = 2.13522e-06, global = 5.26038e-07, cumulative = 5.75449e-06
smoothSolver:  Solving for omega, Initial residual = 1.76023e-05, Final residual = 9.80987e-07, No Iterations 1
smoothSolver:  Solving for k, Initial residual = 0.00201026, Final residual = 9.31952e-05, No Iterations 1
ExecutionTime = 20.24 s  ClockTime = 21 s

forces forcesFish write:
    Sum of forces
        Total    : (0.151078 0.00250573 -8.56089e-05)
        Pressure : (0.0378316 0.0024393 -0.000103996)
        Viscous  : (0.113247 6.64261e-05 1.83874e-05)
    Sum of moments
        Total    : (2.09376e-06 2.34674e-05 0.000703068)
        Pressure : (2.06281e-06 2.32415e-05 0.000638853)
        Viscous  : (3.09517e-08 2.25834e-07 6.42142e-05)
    writing force and moment files.

Time = 38

smoothSolver:  Solving for Ux, Initial residual = 5.2484e-05, Final residual = 5.19486e-06, No Iterations 1
smoothSolver:  Solving for Uy, Initial residual = 0.00266558, Final residual = 0.000192143, No Iterations 1
smoothSolver:  Solving for Uz, Initial residual = 0.00319186, Final residual = 0.00023832, No Iterations 1
GAMG:  Solving for p, Initial residual = 0.0118976, Final residual = 0.000468276, No Iterations 2
time step continuity errors : sum local = 2.12644e-06, global = 4.09693e-07, cumulative = 6.16419e-06
smoothSolver:  Solving for omega, Initial residual = 1.47536e-05, Final residual = 8.60642e-07, No Iterations 1
smoothSolver:  Solving for k, Initial residual = 0.00175832, Final residual = 8.20576e-05, No Iterations 1
ExecutionTime = 20.72 s  ClockTime = 21 s

forces forcesFish write:
    Sum of forces
        Total    : (0.150669 0.00250573 -0.00015675)
        Pressure : (0.0377809 0.00243867 -0.000175259)
        Viscous  : (0.112888 6.7062e-05 1.85091e-05)
    Sum of moments
        Total    : (1.87172e-06 3.67129e-05 0.000688526)
        Pressure : (1.84494e-06 3.6527e-05 0.000624462)
        Viscous  : (2.67799e-08 1.85901e-07 6.4064e-05)
    writing force and moment files.

Time = 39

smoothSolver:  Solving for Ux, Initial residual = 4.94786e-05, Final residual = 4.90346e-06, No Iterations 1
smoothSolver:  Solving for Uy, Initial residual = 0.00240081, Final residual = 0.000171849, No Iterations 1
smoothSolver:  Solving for Uz, Initial residual = 0.00290267, Final residual = 0.000202978, No Iterations 1
GAMG:  Solving for p, Initial residual = 0.0110529, Final residual = 0.00045625, No Iterations 2
time step continuity errors : sum local = 2.06493e-06, global = 2.35634e-07, cumulative = 6.39982e-06
smoothSolver:  Solving for omega, Initial residual = 1.23132e-05, Final residual = 7.56956e-07, No Iterations 1
smoothSolver:  Solving for k, Initial residual = 0.00152909, Final residual = 7.20458e-05, No Iterations 1
ExecutionTime = 21.19 s  ClockTime = 21 s

forces forcesFish write:
    Sum of forces
        Total    : (0.150305 0.00245523 -0.000185792)
        Pressure : (0.0377626 0.00238767 -0.000204476)
        Viscous  : (0.112543 6.75633e-05 1.86834e-05)
    Sum of moments
        Total    : (1.4668e-06 4.02788e-05 0.000667208)
        Pressure : (1.44314e-06 4.01365e-05 0.000603311)
        Viscous  : (2.36668e-08 1.42346e-07 6.38972e-05)
    writing force and moment files.

Time = 40

smoothSolver:  Solving for Ux, Initial residual = 4.71671e-05, Final residual = 4.65801e-06, No Iterations 1
smoothSolver:  Solving for Uy, Initial residual = 0.00219502, Final residual = 0.000155229, No Iterations 1
smoothSolver:  Solving for Uz, Initial residual = 0.0026721, Final residual = 0.000175179, No Iterations 1
GAMG:  Solving for p, Initial residual = 0.0103168, Final residual = 0.000434067, No Iterations 2
time step continuity errors : sum local = 1.9565e-06, global = 6.74603e-08, cumulative = 6.46728e-06
smoothSolver:  Solving for omega, Initial residual = 1.02393e-05, Final residual = 6.67754e-07, No Iterations 1
smoothSolver:  Solving for k, Initial residual = 0.00132142, Final residual = 6.30782e-05, No Iterations 1
ExecutionTime = 21.7 s  ClockTime = 22 s

forces forcesFish write:
    Sum of forces
        Total    : (0.14996 0.00236729 -0.000179238)
        Pressure : (0.0377494 0.00229941 -0.000198125)
        Viscous  : (0.112211 6.78871e-05 1.88875e-05)
    Sum of moments
        Total    : (9.69718e-07 3.61961e-05 0.000641298)
        Pressure : (9.48294e-07 3.60997e-05 0.000577585)
        Viscous  : (2.14247e-08 9.64362e-08 6.37128e-05)
    writing force and moment files.

Time = 41

smoothSolver:  Solving for Ux, Initial residual = 4.47274e-05, Final residual = 4.42107e-06, No Iterations 1
smoothSolver:  Solving for Uy, Initial residual = 0.00204423, Final residual = 0.000143332, No Iterations 1
smoothSolver:  Solving for Uz, Initial residual = 0.00247365, Final residual = 0.000154227, No Iterations 1
GAMG:  Solving for p, Initial residual = 0.00962637, Final residual = 0.000404944, No Iterations 2
time step continuity errors : sum local = 1.81789e-06, global = -7.28389e-08, cumulative = 6.39444e-06
smoothSolver:  Solving for omega, Initial residual = 8.49133e-06, Final residual = 5.91295e-07, No Iterations 1
smoothSolver:  Solving for k, Initial residual = 0.00113495, Final residual = 5.51088e-05, No Iterations 1
ExecutionTime = 22.22 s  ClockTime = 23 s

forces forcesFish write:
    Sum of forces
        Total    : (0.149615 0.00225761 -0.000147557)
        Pressure : (0.0377246 0.00218958 -0.000166643)
        Viscous  : (0.111891 6.80332e-05 1.90862e-05)
    Sum of moments
        Total    : (4.64986e-07 2.71646e-05 0.000613404)
        Pressure : (4.45132e-07 2.71131e-05 0.000549896)
        Viscous  : (1.98538e-08 5.15022e-08 6.35081e-05)
    writing force and moment files.

Time = 42

smoothSolver:  Solving for Ux, Initial residual = 4.18057e-05, Final residual = 4.17368e-06, No Iterations 1
smoothSolver:  Solving for Uy, Initial residual = 0.00191562, Final residual = 0.000133968, No Iterations 1
smoothSolver:  Solving for Uz, Initial residual = 0.00230627, Final residual = 0.000141306, No Iterations 1
GAMG:  Solving for p, Initial residual = 0.00896596, Final residual = 0.000374609, No Iterations 2
time step continuity errors : sum local = 1.67596e-06, global = -1.46245e-07, cumulative = 6.2482e-06
smoothSolver:  Solving for omega, Initial residual = 7.03072e-06, Final residual = 5.25634e-07, No Iterations 1
smoothSolver:  Solving for k, Initial residual = 0.000968994, Final residual = 4.80768e-05, No Iterations 1
ExecutionTime = 22.73 s  ClockTime = 23 s

forces forcesFish write:
    Sum of forces
        Total    : (0.149265 0.00214181 -0.000102641)
        Pressure : (0.0376816 0.00207379 -0.000121891)
        Viscous  : (0.111583 6.80183e-05 1.925e-05)
    Sum of moments
        Total    : (2.00913e-08 1.60033e-05 0.000586135)
        Pressure : (1.4538e-09 1.59907e-05 0.000522852)
        Viscous  : (1.86375e-08 1.26453e-08 6.3283e-05)
    writing force and moment files.

Time = 43

smoothSolver:  Solving for Ux, Initial residual = 3.83069e-05, Final residual = 7.88138e-07, No Iterations 2
smoothSolver:  Solving for Uy, Initial residual = 0.00178839, Final residual = 0.000126012, No Iterations 1
smoothSolver:  Solving for Uz, Initial residual = 0.00215909, Final residual = 0.00013372, No Iterations 1
GAMG:  Solving for p, Initial residual = 0.00835281, Final residual = 0.000332795, No Iterations 2
time step continuity errors : sum local = 1.48475e-06, global = -1.73249e-07, cumulative = 6.07495e-06
smoothSolver:  Solving for omega, Initial residual = 5.82475e-06, Final residual = 4.70428e-07, No Iterations 1
smoothSolver:  Solving for k, Initial residual = 0.000822511, Final residual = 4.19023e-05, No Iterations 1
ExecutionTime = 23.23 s  ClockTime = 24 s

forces forcesFish write:
    Sum of forces
        Total    : (0.148868 0.00202864 -5.68568e-05)
        Pressure : (0.0376 0.00196079 -7.62286e-05)
        Viscous  : (0.111268 6.78521e-05 1.93718e-05)
    Sum of moments
        Total    : (-3.20057e-07 5.41887e-06 0.000559879)
        Pressure : (-3.37693e-07 5.44184e-06 0.000496897)
        Viscous  : (1.76362e-08 -2.29694e-08 6.2982e-05)
    writing force and moment files.

Time = 44

smoothSolver:  Solving for Ux, Initial residual = 3.44635e-05, Final residual = 7.32222e-07, No Iterations 2
smoothSolver:  Solving for Uy, Initial residual = 0.00166568, Final residual = 0.000118473, No Iterations 1
smoothSolver:  Solving for Uz, Initial residual = 0.0020281, Final residual = 0.000128343, No Iterations 1
GAMG:  Solving for p, Initial residual = 0.00780082, Final residual = 0.000293984, No Iterations 2
time step continuity errors : sum local = 1.30814e-06, global = -1.93773e-07, cumulative = 5.88117e-06
smoothSolver:  Solving for omega, Initial residual = 4.8321e-06, Final residual = 4.22948e-07, No Iterations 1
smoothSolver:  Solving for k, Initial residual = 0.000694277, Final residual = 3.65106e-05, No Iterations 1
ExecutionTime = 23.74 s  ClockTime = 24 s

forces forcesFish write:
    Sum of forces
        Total    : (0.148462 0.00193233 -1.91124e-05)
        Pressure : (0.0374956 0.00186475 -3.85442e-05)
        Viscous  : (0.110966 6.75744e-05 1.94318e-05)
    Sum of moments
        Total    : (-5.25093e-07 -2.64991e-06 0.000537681)
        Pressure : (-5.41743e-07 -2.59857e-06 0.000475014)
        Viscous  : (1.66503e-08 -5.13401e-08 6.26671e-05)
    writing force and moment files.

Time = 45

smoothSolver:  Solving for Ux, Initial residual = 3.14184e-05, Final residual = 6.8405e-07, No Iterations 2
smoothSolver:  Solving for Uy, Initial residual = 0.00154206, Final residual = 0.000110101, No Iterations 1
smoothSolver:  Solving for Uz, Initial residual = 0.00190896, Final residual = 0.000123243, No Iterations 1
GAMG:  Solving for p, Initial residual = 0.00727511, Final residual = 0.00026555, No Iterations 2
time step continuity errors : sum local = 1.17895e-06, global = -2.22981e-07, cumulative = 5.65819e-06
smoothSolver:  Solving for omega, Initial residual = 4.02107e-06, Final residual = 3.82126e-07, No Iterations 1
smoothSolver:  Solving for k, Initial residual = 0.000582943, Final residual = 3.18208e-05, No Iterations 1
ExecutionTime = 24.26 s  ClockTime = 25 s

forces forcesFish write:
    Sum of forces
        Total    : (0.148061 0.00186144 4.83028e-06)
        Pressure : (0.0373836 0.00179422 -1.46158e-05)
        Viscous  : (0.110678 6.72255e-05 1.94461e-05)
    Sum of moments
        Total    : (-5.9581e-07 -7.1066e-06 0.000521356)
        Pressure : (-6.11427e-07 -7.03436e-06 0.000459013)
        Viscous  : (1.56171e-08 -7.22366e-08 6.23434e-05)
    writing force and moment files.

Time = 46

smoothSolver:  Solving for Ux, Initial residual = 2.95528e-05, Final residual = 6.44745e-07, No Iterations 2
smoothSolver:  Solving for Uy, Initial residual = 0.00141987, Final residual = 0.000101057, No Iterations 1
smoothSolver:  Solving for Uz, Initial residual = 0.00180304, Final residual = 0.000118059, No Iterations 1
GAMG:  Solving for p, Initial residual = 0.00679916, Final residual = 0.000246, No Iterations 2
time step continuity errors : sum local = 1.09025e-06, global = -2.38431e-07, cumulative = 5.41976e-06
smoothSolver:  Solving for omega, Initial residual = 3.3624e-06, Final residual = 6.64023e-08, No Iterations 2
smoothSolver:  Solving for k, Initial residual = 0.000487245, Final residual = 2.77652e-05, No Iterations 1
ExecutionTime = 24.73 s  ClockTime = 25 s

forces forcesFish write:
    Sum of forces
        Total    : (0.147678 0.00181744 1.31613e-05)
        Pressure : (0.037275 0.00175061 -6.27514e-06)
        Viscous  : (0.110403 6.68361e-05 1.94365e-05)
    Sum of moments
        Total    : (-5.58812e-07 -7.83379e-06 0.000511145)
        Pressure : (-5.73215e-07 -7.7436e-06 0.000449132)
        Viscous  : (1.44032e-08 -9.01904e-08 6.20128e-05)
    writing force and moment files.

Time = 47

smoothSolver:  Solving for Ux, Initial residual = 2.87303e-05, Final residual = 6.12694e-07, No Iterations 2
smoothSolver:  Solving for Uy, Initial residual = 0.00130309, Final residual = 9.18885e-05, No Iterations 1
smoothSolver:  Solving for Uz, Initial residual = 0.00170692, Final residual = 0.000112634, No Iterations 1
GAMG:  Solving for p, Initial residual = 0.00636578, Final residual = 0.000229304, No Iterations 2
time step continuity errors : sum local = 1.0149e-06, global = -2.29566e-07, cumulative = 5.1902e-06
smoothSolver:  Solving for omega, Initial residual = 2.77068e-06, Final residual = 6.03783e-08, No Iterations 2
smoothSolver:  Solving for k, Initial residual = 0.00040581, Final residual = 2.42735e-05, No Iterations 1
ExecutionTime = 25.21 s  ClockTime = 26 s

forces forcesFish write:
    Sum of forces
        Total    : (0.147318 0.00179717 7.20993e-06)
        Pressure : (0.0371768 0.00173073 -1.21927e-05)
        Viscous  : (0.110141 6.64326e-05 1.94027e-05)
    Sum of moments
        Total    : (-4.50325e-07 -5.38941e-06 0.000506286)
        Pressure : (-4.63259e-07 -5.28213e-06 0.000444608)
        Viscous  : (1.29339e-08 -1.07272e-07 6.16778e-05)
    writing force and moment files.

Time = 48

smoothSolver:  Solving for Ux, Initial residual = 2.8023e-05, Final residual = 5.83457e-07, No Iterations 2
smoothSolver:  Solving for Uy, Initial residual = 0.00120749, Final residual = 8.39192e-05, No Iterations 1
smoothSolver:  Solving for Uz, Initial residual = 0.00160468, Final residual = 0.000106138, No Iterations 1
GAMG:  Solving for p, Initial residual = 0.00596768, Final residual = 0.00021206, No Iterations 2
time step continuity errors : sum local = 9.37507e-07, global = -2.05592e-07, cumulative = 4.9846e-06
smoothSolver:  Solving for omega, Initial residual = 2.30327e-06, Final residual = 5.43133e-08, No Iterations 2
smoothSolver:  Solving for k, Initial residual = 0.000337088, Final residual = 2.12714e-05, No Iterations 1
ExecutionTime = 25.71 s  ClockTime = 26 s

forces forcesFish write:
    Sum of forces
        Total    : (0.146985 0.00179541 -9.81561e-06)
        Pressure : (0.037093 0.00172938 -2.9173e-05)
        Viscous  : (0.109892 6.6026e-05 1.93574e-05)
    Sum of moments
        Total    : (-3.04739e-07 -6.56053e-07 0.000505583)
        Pressure : (-3.16008e-07 -5.30326e-07 0.000444242)
        Viscous  : (1.12685e-08 -1.25727e-07 6.13405e-05)
    writing force and moment files.

Time = 49

smoothSolver:  Solving for Ux, Initial residual = 2.71006e-05, Final residual = 5.55558e-07, No Iterations 2
smoothSolver:  Solving for Uy, Initial residual = 0.00113212, Final residual = 7.73235e-05, No Iterations 1
smoothSolver:  Solving for Uz, Initial residual = 0.00149858, Final residual = 9.85977e-05, No Iterations 1
GAMG:  Solving for p, Initial residual = 0.00559893, Final residual = 0.000202822, No Iterations 2
time step continuity errors : sum local = 8.95609e-07, global = -1.8011e-07, cumulative = 4.80449e-06
smoothSolver:  Solving for omega, Initial residual = 1.93313e-06, Final residual = 4.88485e-08, No Iterations 2
smoothSolver:  Solving for k, Initial residual = 0.000279555, Final residual = 1.86935e-05, No Iterations 1
ExecutionTime = 26.22 s  ClockTime = 27 s

forces forcesFish write:
    Sum of forces
        Total    : (0.146681 0.00180636 -3.37449e-05)
        Pressure : (0.0370246 0.00174074 -5.30569e-05)
        Viscous  : (0.109656 6.56198e-05 1.9312e-05)
    Sum of moments
        Total    : (-1.52304e-07 5.35316e-06 0.000507698)
        Pressure : (-1.61703e-07 5.49888e-06 0.000446697)
        Viscous  : (9.39955e-09 -1.45718e-07 6.10011e-05)
    writing force and moment files.

Time = 50

smoothSolver:  Solving for Ux, Initial residual = 2.57422e-05, Final residual = 5.28056e-07, No Iterations 2
smoothSolver:  Solving for Uy, Initial residual = 0.00106144, Final residual = 7.16557e-05, No Iterations 1
smoothSolver:  Solving for Uz, Initial residual = 0.00139746, Final residual = 9.11608e-05, No Iterations 1
GAMG:  Solving for p, Initial residual = 0.00525581, Final residual = 0.000192307, No Iterations 2
time step continuity errors : sum local = 8.48029e-07, global = -1.54163e-07, cumulative = 4.65033e-06
smoothSolver:  Solving for omega, Initial residual = 1.64011e-06, Final residual = 4.40087e-08, No Iterations 2
smoothSolver:  Solving for k, Initial residual = 0.000231691, Final residual = 1.64767e-05, No Iterations 1
ExecutionTime = 26.71 s  ClockTime = 27 s

forces forcesFish write:
    Sum of forces
        Total    : (0.146402 0.00182343 -5.98238e-05)
        Pressure : (0.0369704 0.00175823 -7.91041e-05)
        Viscous  : (0.109432 6.51998e-05 1.92803e-05)
    Sum of moments
        Total    : (-2.1741e-08 1.15366e-05 0.000511104)
        Pressure : (-2.92303e-08 1.17045e-05 0.000450446)
        Viscous  : (7.48929e-09 -1.67915e-07 6.06577e-05)
    writing force and moment files.

Time = 51

smoothSolver:  Solving for Ux, Initial residual = 2.40551e-05, Final residual = 5.00689e-07, No Iterations 2
smoothSolver:  Solving for Uy, Initial residual = 0.00099418, Final residual = 6.69307e-05, No Iterations 1
smoothSolver:  Solving for Uz, Initial residual = 0.00129816, Final residual = 8.40346e-05, No Iterations 1
GAMG:  Solving for p, Initial residual = 0.00493964, Final residual = 0.00018238, No Iterations 2
time step continuity errors : sum local = 8.03142e-07, global = -1.18083e-07, cumulative = 4.53225e-06
smoothSolver:  Solving for omega, Initial residual = 1.40739e-06, Final residual = 3.97479e-08, No Iterations 2
smoothSolver:  Solving for k, Initial residual = 0.000192193, Final residual = 1.45725e-05, No Iterations 1
ExecutionTime = 27.18 s  ClockTime = 27 s

forces forcesFish write:
    Sum of forces
        Total    : (0.146147 0.00184026 -8.36959e-05)
        Pressure : (0.0369274 0.0017755 -0.00010296)
        Viscous  : (0.109219 6.47597e-05 1.92643e-05)
    Sum of moments
        Total    : (6.52295e-08 1.69344e-05 0.000514322)
        Pressure : (5.95532e-08 1.7125e-05 0.000454014)
        Viscous  : (5.67624e-09 -1.90607e-07 6.03074e-05)
    writing force and moment files.

Time = 52

smoothSolver:  Solving for Ux, Initial residual = 2.2495e-05, Final residual = 4.74245e-07, No Iterations 2
smoothSolver:  Solving for Uy, Initial residual = 0.00092739, Final residual = 6.28183e-05, No Iterations 1
smoothSolver:  Solving for Uz, Initial residual = 0.00120706, Final residual = 7.7491e-05, No Iterations 1
GAMG:  Solving for p, Initial residual = 0.00464584, Final residual = 0.000174652, No Iterations 2
time step continuity errors : sum local = 7.68254e-07, global = -7.36126e-08, cumulative = 4.45864e-06
smoothSolver:  Solving for omega, Initial residual = 1.22101e-06, Final residual = 3.59947e-08, No Iterations 2
smoothSolver:  Solving for k, Initial residual = 0.000159801, Final residual = 1.29347e-05, No Iterations 1
ExecutionTime = 27.68 s  ClockTime = 28 s

forces forcesFish write:
    Sum of forces
        Total    : (0.14591 0.00185272 -0.000102529)
        Pressure : (0.0368924 0.00178844 -0.000121797)
        Viscous  : (0.109018 6.4285e-05 1.92674e-05)
    Sum of moments
        Total    : (1.02045e-07 2.09971e-05 0.000516422)
        Pressure : (9.80331e-08 2.12108e-05 0.000456472)
        Viscous  : (4.01239e-09 -2.13692e-07 5.99506e-05)
    writing force and moment files.

Time = 53

smoothSolver:  Solving for Ux, Initial residual = 2.12481e-05, Final residual = 4.49505e-07, No Iterations 2
smoothSolver:  Solving for Uy, Initial residual = 0.000857984, Final residual = 5.90198e-05, No Iterations 1
smoothSolver:  Solving for Uz, Initial residual = 0.0011249, Final residual = 7.19032e-05, No Iterations 1
GAMG:  Solving for p, Initial residual = 0.00436454, Final residual = 0.000168011, No Iterations 2
time step continuity errors : sum local = 7.38531e-07, global = -2.67928e-08, cumulative = 4.43184e-06
smoothSolver:  Solving for omega, Initial residual = 1.0714e-06, Final residual = 3.26888e-08, No Iterations 2
smoothSolver:  Solving for k, Initial residual = 0.000133363, Final residual = 1.15223e-05, No Iterations 1
ExecutionTime = 28.18 s  ClockTime = 28 s

forces forcesFish write:
    Sum of forces
        Total    : (0.14569 0.00185945 -0.000115344)
        Pressure : (0.0368627 0.00179569 -0.000134624)
        Viscous  : (0.108827 6.37608e-05 1.92804e-05)
    Sum of moments
        Total    : (9.55647e-08 2.36327e-05 0.000517115)
        Pressure : (9.30351e-08 2.38678e-05 0.000457532)
        Viscous  : (2.52958e-09 -2.35188e-07 5.95834e-05)
    writing force and moment files.

Time = 54

smoothSolver:  Solving for Ux, Initial residual = 2.03951e-05, Final residual = 4.26584e-07, No Iterations 2
smoothSolver:  Solving for Uy, Initial residual = 0.000791781, Final residual = 5.55721e-05, No Iterations 1
smoothSolver:  Solving for Uz, Initial residual = 0.0010544, Final residual = 6.76198e-05, No Iterations 1
GAMG:  Solving for p, Initial residual = 0.00409826, Final residual = 0.000160248, No Iterations 2
time step continuity errors : sum local = 7.04171e-07, global = 1.66573e-08, cumulative = 4.4485e-06
smoothSolver:  Solving for omega, Initial residual = 9.50353e-07, Final residual = 2.98217e-08, No Iterations 2
smoothSolver:  Solving for k, Initial residual = 0.000111858, Final residual = 1.02997e-05, No Iterations 1
ExecutionTime = 28.66 s  ClockTime = 29 s

forces forcesFish write:
    Sum of forces
        Total    : (0.145483 0.00186088 -0.000122527)
        Pressure : (0.036836 0.0017977 -0.000141829)
        Viscous  : (0.108647 6.3178e-05 1.93016e-05)
    Sum of moments
        Total    : (5.88719e-08 2.50484e-05 0.000516535)
        Pressure : (5.762e-08 2.53049e-05 0.00045733)
        Viscous  : (1.2519e-09 -2.56464e-07 5.92041e-05)
    writing force and moment files.

Time = 55

smoothSolver:  Solving for Ux, Initial residual = 1.9836e-05, Final residual = 4.05328e-07, No Iterations 2
smoothSolver:  Solving for Uy, Initial residual = 0.000733701, Final residual = 5.26727e-05, No Iterations 1
smoothSolver:  Solving for Uz, Initial residual = 0.000993704, Final residual = 6.45343e-05, No Iterations 1
GAMG:  Solving for p, Initial residual = 0.00384646, Final residual = 0.000148938, No Iterations 2
time step continuity errors : sum local = 6.54451e-07, global = 6.42638e-08, cumulative = 4.51276e-06
smoothSolver:  Solving for omega, Initial residual = 8.51639e-07, Final residual = 2.73256e-08, No Iterations 2
smoothSolver:  Solving for k, Initial residual = 9.44057e-05, Final residual = 9.23708e-06, No Iterations 1
ExecutionTime = 29.14 s  ClockTime = 29 s

forces forcesFish write:
    Sum of forces
        Total    : (0.145287 0.0018583 -0.000125289)
        Pressure : (0.0368108 0.00179576 -0.000144613)
        Viscous  : (0.108476 6.25327e-05 1.93236e-05)
    Sum of moments
        Total    : (5.92543e-09 2.56034e-05 0.000515014)
        Pressure : (5.77509e-09 2.58798e-05 0.000456202)
        Viscous  : (1.50344e-10 -2.7642e-07 5.88121e-05)
    writing force and moment files.

Time = 56

smoothSolver:  Solving for Ux, Initial residual = 1.93667e-05, Final residual = 1.93253e-06, No Iterations 1
smoothSolver:  Solving for Uy, Initial residual = 0.000690848, Final residual = 5.06182e-05, No Iterations 1
smoothSolver:  Solving for Uz, Initial residual = 0.000939138, Final residual = 6.21645e-05, No Iterations 1
GAMG:  Solving for p, Initial residual = 0.00360761, Final residual = 0.0001322, No Iterations 2
time step continuity errors : sum local = 5.81013e-07, global = 1.02801e-07, cumulative = 4.61556e-06
smoothSolver:  Solving for omega, Initial residual = 7.66989e-07, Final residual = 2.49947e-08, No Iterations 2
smoothSolver:  Solving for k, Initial residual = 8.02622e-05, Final residual = 1.62913e-06, No Iterations 2
ExecutionTime = 29.68 s  ClockTime = 30 s

forces forcesFish write:
    Sum of forces
        Total    : (0.145107 0.00185555 -0.000124437)
        Pressure : (0.0368016 0.00179374 -0.000143779)
        Viscous  : (0.108305 6.18136e-05 1.93427e-05)
    Sum of moments
        Total    : (-5.12589e-08 2.54941e-05 0.000513865)
        Pressure : (-5.04042e-08 2.57884e-05 0.000455443)
        Viscous  : (-8.5473e-10 -2.94358e-07 5.84227e-05)
    writing force and moment files.

Time = 57

smoothSolver:  Solving for Ux, Initial residual = 1.88994e-05, Final residual = 1.87556e-06, No Iterations 1
smoothSolver:  Solving for Uy, Initial residual = 0.000652953, Final residual = 4.83632e-05, No Iterations 1
smoothSolver:  Solving for Uz, Initial residual = 0.000882946, Final residual = 5.93019e-05, No Iterations 1
GAMG:  Solving for p, Initial residual = 0.00339191, Final residual = 0.000112536, No Iterations 2
time step continuity errors : sum local = 4.94962e-07, global = 1.25909e-07, cumulative = 4.74147e-06
smoothSolver:  Solving for omega, Initial residual = 7.15297e-07, Final residual = 2.34708e-08, No Iterations 2
smoothSolver:  Solving for k, Initial residual = 6.82782e-05, Final residual = 1.47522e-06, No Iterations 2
ExecutionTime = 30.21 s  ClockTime = 30 s

forces forcesFish write:
    Sum of forces
        Total    : (0.144946 0.00185284 -0.000122063)
        Pressure : (0.036801 0.00179178 -0.000141414)
        Viscous  : (0.108145 6.10613e-05 1.93512e-05)
    Sum of moments
        Total    : (-1.03931e-07 2.523e-05 0.000512951)
        Pressure : (-1.02267e-07 2.55386e-05 0.000454923)
        Viscous  : (-1.66416e-09 -3.08632e-07 5.80289e-05)
    writing force and moment files.

Time = 58

smoothSolver:  Solving for Ux, Initial residual = 1.80193e-05, Final residual = 1.80093e-06, No Iterations 1
smoothSolver:  Solving for Uy, Initial residual = 0.000615405, Final residual = 4.58878e-05, No Iterations 1
smoothSolver:  Solving for Uz, Initial residual = 0.000828195, Final residual = 5.61115e-05, No Iterations 1
GAMG:  Solving for p, Initial residual = 0.00319015, Final residual = 0.000106065, No Iterations 2
time step continuity errors : sum local = 4.67082e-07, global = 1.15078e-07, cumulative = 4.85655e-06
smoothSolver:  Solving for omega, Initial residual = 6.65237e-07, Final residual = 2.19677e-08, No Iterations 2
smoothSolver:  Solving for k, Initial residual = 5.85265e-05, Final residual = 1.32073e-06, No Iterations 2
ExecutionTime = 30.93 s  ClockTime = 31 s

forces forcesFish write:
    Sum of forces
        Total    : (0.144798 0.00185043 -0.000120189)
        Pressure : (0.036803 0.00179015 -0.00013954)
        Viscous  : (0.107995 6.02807e-05 1.9351e-05)
    Sum of moments
        Total    : (-1.44662e-07 2.52729e-05 0.000512204)
        Pressure : (-1.42327e-07 2.55935e-05 0.000454572)
        Viscous  : (-2.33514e-09 -3.20688e-07 5.76315e-05)
    writing force and moment files.

Time = 59

smoothSolver:  Solving for Ux, Initial residual = 1.63456e-05, Final residual = 3.4363e-07, No Iterations 2
smoothSolver:  Solving for Uy, Initial residual = 0.000580446, Final residual = 4.34716e-05, No Iterations 1
smoothSolver:  Solving for Uz, Initial residual = 0.000778222, Final residual = 5.28916e-05, No Iterations 1
GAMG:  Solving for p, Initial residual = 0.00300648, Final residual = 0.000105716, No Iterations 2
time step continuity errors : sum local = 4.66417e-07, global = 8.02398e-08, cumulative = 4.93679e-06
smoothSolver:  Solving for omega, Initial residual = 6.21623e-07, Final residual = 2.06256e-08, No Iterations 2
smoothSolver:  Solving for k, Initial residual = 5.05357e-05, Final residual = 1.17786e-06, No Iterations 2
ExecutionTime = 31.45 s  ClockTime = 32 s

forces forcesFish write:
    Sum of forces
        Total    : (0.144634 0.001847 -0.000121253)
        Pressure : (0.036787 0.00178752 -0.000140593)
        Viscous  : (0.107847 5.94719e-05 1.934e-05)
    Sum of moments
        Total    : (-1.67398e-07 2.61501e-05 0.000510902)
        Pressure : (-1.64502e-07 2.64811e-05 0.000453697)
        Viscous  : (-2.89574e-09 -3.30964e-07 5.72049e-05)
    writing force and moment files.

Time = 60

smoothSolver:  Solving for Ux, Initial residual = 1.38537e-05, Final residual = 3.22273e-07, No Iterations 2
smoothSolver:  Solving for Uy, Initial residual = 0.00054987, Final residual = 4.15793e-05, No Iterations 1
smoothSolver:  Solving for Uz, Initial residual = 0.000735312, Final residual = 5.04366e-05, No Iterations 1
GAMG:  Solving for p, Initial residual = 0.00282824, Final residual = 9.71948e-05, No Iterations 2
time step continuity errors : sum local = 4.29691e-07, global = 6.85739e-08, cumulative = 5.00537e-06
smoothSolver:  Solving for omega, Initial residual = 5.81523e-07, Final residual = 1.93248e-08, No Iterations 2
smoothSolver:  Solving for k, Initial residual = 4.39465e-05, Final residual = 1.04902e-06, No Iterations 2
ExecutionTime = 32.02 s  ClockTime = 32 s

forces forcesFish write:
    Sum of forces
        Total    : (0.144464 0.00184416 -0.000124934)
        Pressure : (0.0367565 0.00178552 -0.000144255)
        Viscous  : (0.107708 5.86467e-05 1.93207e-05)
    Sum of moments
        Total    : (-1.73849e-07 2.76858e-05 0.000509624)
        Pressure : (-1.70473e-07 2.80253e-05 0.000452846)
        Viscous  : (-3.37581e-09 -3.39481e-07 5.67783e-05)
    writing force and moment files.

Time = 61

smoothSolver:  Solving for Ux, Initial residual = 1.19424e-05, Final residual = 3.03239e-07, No Iterations 2
smoothSolver:  Solving for Uy, Initial residual = 0.000515589, Final residual = 3.97126e-05, No Iterations 1
smoothSolver:  Solving for Uz, Initial residual = 0.0006931, Final residual = 4.81904e-05, No Iterations 1
GAMG:  Solving for p, Initial residual = 0.00265646, Final residual = 8.84332e-05, No Iterations 2
time step continuity errors : sum local = 3.91567e-07, global = 6.82889e-08, cumulative = 5.07365e-06
smoothSolver:  Solving for omega, Initial residual = 5.44511e-07, Final residual = 1.8083e-08, No Iterations 2
smoothSolver:  Solving for k, Initial residual = 3.84734e-05, Final residual = 9.33384e-07, No Iterations 2
ExecutionTime = 32.6 s  ClockTime = 33 s

forces forcesFish write:
    Sum of forces
        Total    : (0.144296 0.00184295 -0.00013025)
        Pressure : (0.0367183 0.00178513 -0.000149547)
        Viscous  : (0.107578 5.78199e-05 1.9297e-05)
    Sum of moments
        Total    : (-1.69198e-07 2.95744e-05 0.000508768)
        Pressure : (-1.65401e-07 2.9921e-05 0.000452413)
        Viscous  : (-3.79698e-09 -3.46609e-07 5.63555e-05)
    writing force and moment files.

Time = 62

smoothSolver:  Solving for Ux, Initial residual = 1.08562e-05, Final residual = 2.87106e-07, No Iterations 2
smoothSolver:  Solving for Uy, Initial residual = 0.000477263, Final residual = 3.77027e-05, No Iterations 1
smoothSolver:  Solving for Uz, Initial residual = 0.000650594, Final residual = 4.59492e-05, No Iterations 1
GAMG:  Solving for p, Initial residual = 0.00249738, Final residual = 8.82819e-05, No Iterations 2
time step continuity errors : sum local = 3.91219e-07, global = 5.02377e-08, cumulative = 5.12389e-06
smoothSolver:  Solving for omega, Initial residual = 5.10093e-07, Final residual = 1.68988e-08, No Iterations 2
smoothSolver:  Solving for k, Initial residual = 3.38777e-05, Final residual = 8.29692e-07, No Iterations 2
ExecutionTime = 33.14 s  ClockTime = 33 s

forces forcesFish write:
    Sum of forces
        Total    : (0.144135 0.00184383 -0.000136599)
        Pressure : (0.0366782 0.00178683 -0.00015587)
        Viscous  : (0.107457 5.70026e-05 1.92711e-05)
    Sum of moments
        Total    : (-1.57406e-07 3.16363e-05 0.000508538)
        Pressure : (-1.53229e-07 3.19893e-05 0.000452599)
        Viscous  : (-4.17687e-09 -3.5299e-07 5.59394e-05)
    writing force and moment files.

Time = 63

smoothSolver:  Solving for Ux, Initial residual = 1.02503e-05, Final residual = 2.72428e-07, No Iterations 2
smoothSolver:  Solving for Uy, Initial residual = 0.000441333, Final residual = 3.57929e-05, No Iterations 1
smoothSolver:  Solving for Uz, Initial residual = 0.000609808, Final residual = 4.37499e-05, No Iterations 1
GAMG:  Solving for p, Initial residual = 0.00234871, Final residual = 8.5742e-05, No Iterations 2
time step continuity errors : sum local = 3.80098e-07, global = 1.69179e-08, cumulative = 5.14081e-06
smoothSolver:  Solving for omega, Initial residual = 4.78068e-07, Final residual = 1.57686e-08, No Iterations 2
smoothSolver:  Solving for k, Initial residual = 2.99726e-05, Final residual = 7.36789e-07, No Iterations 2
ExecutionTime = 33.64 s  ClockTime = 34 s

forces forcesFish write:
    Sum of forces
        Total    : (0.143984 0.0018471 -0.000143795)
        Pressure : (0.0366401 0.0017909 -0.00016304)
        Viscous  : (0.107344 5.62042e-05 1.92451e-05)
    Sum of moments
        Total    : (-1.4053e-07 3.38143e-05 0.000509061)
        Pressure : (-1.36011e-07 3.41732e-05 0.000453529)
        Viscous  : (-4.51857e-09 -3.58953e-07 5.55322e-05)
    writing force and moment files.

Time = 64

smoothSolver:  Solving for Ux, Initial residual = 9.89337e-06, Final residual = 2.58754e-07, No Iterations 2
smoothSolver:  Solving for Uy, Initial residual = 0.000415265, Final residual = 3.43599e-05, No Iterations 1
smoothSolver:  Solving for Uz, Initial residual = 0.000573529, Final residual = 4.17999e-05, No Iterations 1
[...]
        Pressure : (-3.80542e-08 5.38394e-05 0.000535037)
        Viscous  : (8.0084e-10 -4.74389e-07 4.92032e-05)
    writing force and moment files.

Time = 118

smoothSolver:  Solving for Ux, Initial residual = 9.23116e-07, Final residual = 5.23619e-08, No Iterations 1
smoothSolver:  Solving for Uy, Initial residual = 2.37176e-05, Final residual = 1.67706e-06, No Iterations 1
smoothSolver:  Solving for Uz, Initial residual = 2.91217e-05, Final residual = 2.08428e-06, No Iterations 1
GAMG:  Solving for p, Initial residual = 0.000110774, Final residual = 5.23873e-06, No Iterations 2
time step continuity errors : sum local = 2.3382e-08, global = -6.71034e-09, cumulative = 4.81654e-06
smoothSolver:  Solving for omega, Initial residual = 8.81119e-09, Final residual = 8.81119e-09, No Iterations 0
smoothSolver:  Solving for k, Initial residual = 5.35359e-08, Final residual = 5.20188e-09, No Iterations 1
ExecutionTime = 62.01 s  ClockTime = 62 s

forces forcesFish write:
    Sum of forces
        Total    : (0.142383 0.00208295 -0.000209218)
        Pressure : (0.0362914 0.00203792 -0.000228184)
        Viscous  : (0.106092 4.50359e-05 1.89657e-05)
    Sum of moments
        Total    : (-3.7351e-08 5.33235e-05 0.000584403)
        Pressure : (-3.82618e-08 5.37971e-05 0.000535202)
        Viscous  : (9.10833e-10 -4.73657e-07 4.92007e-05)
    writing force and moment files.

Time = 119

smoothSolver:  Solving for Ux, Initial residual = 9.23558e-07, Final residual = 5.0864e-08, No Iterations 1
smoothSolver:  Solving for Uy, Initial residual = 2.21765e-05, Final residual = 1.54575e-06, No Iterations 1
smoothSolver:  Solving for Uz, Initial residual = 2.7513e-05, Final residual = 1.93903e-06, No Iterations 1
GAMG:  Solving for p, Initial residual = 0.000104154, Final residual = 4.7062e-06, No Iterations 2
time step continuity errors : sum local = 2.1005e-08, global = -5.11739e-09, cumulative = 4.81142e-06
smoothSolver:  Solving for omega, Initial residual = 9.76997e-09, Final residual = 9.76997e-09, No Iterations 0
smoothSolver:  Solving for k, Initial residual = 5.07883e-08, Final residual = 4.80934e-09, No Iterations 1
ExecutionTime = 62.48 s  ClockTime = 63 s

forces forcesFish write:
    Sum of forces
        Total    : (0.142382 0.00208337 -0.000209087)
        Pressure : (0.0362908 0.00203833 -0.000228051)
        Viscous  : (0.106091 4.50354e-05 1.89636e-05)
    Sum of moments
        Total    : (-3.74485e-08 5.32874e-05 0.000584562)
        Pressure : (-3.84628e-08 5.37604e-05 0.000535364)
        Viscous  : (1.01428e-09 -4.72987e-07 4.91984e-05)
    writing force and moment files.

Time = 120

smoothSolver:  Solving for Ux, Initial residual = 9.0695e-07, Final residual = 4.88553e-08, No Iterations 1
smoothSolver:  Solving for Uy, Initial residual = 2.06729e-05, Final residual = 1.41913e-06, No Iterations 1
smoothSolver:  Solving for Uz, Initial residual = 2.58438e-05, Final residual = 1.79401e-06, No Iterations 1
GAMG:  Solving for p, Initial residual = 9.78169e-05, Final residual = 4.21114e-06, No Iterations 2
time step continuity errors : sum local = 1.87956e-08, global = -3.06494e-09, cumulative = 4.80836e-06
smoothSolver:  Solving for omega, Initial residual = 1.06624e-08, Final residual = 1.65503e-09, No Iterations 1
smoothSolver:  Solving for k, Initial residual = 4.77391e-08, Final residual = 4.37625e-09, No Iterations 1
ExecutionTime = 62.95 s  ClockTime = 63 s

forces forcesFish write:
    Sum of forces
        Total    : (0.142381 0.00208378 -0.000208971)
        Pressure : (0.0362903 0.00203875 -0.000227933)
        Viscous  : (0.106091 4.50349e-05 1.89617e-05)
    Sum of moments
        Total    : (-3.75332e-08 5.32557e-05 0.00058472)
        Pressure : (-3.86443e-08 5.37281e-05 0.000535524)
        Viscous  : (1.11109e-09 -4.72379e-07 4.91962e-05)
    writing force and moment files.

Time = 121

smoothSolver:  Solving for Ux, Initial residual = 8.75509e-07, Final residual = 4.63884e-08, No Iterations 1
smoothSolver:  Solving for Uy, Initial residual = 1.925e-05, Final residual = 1.3012e-06, No Iterations 1
smoothSolver:  Solving for Uz, Initial residual = 2.41714e-05, Final residual = 1.65457e-06, No Iterations 1
GAMG:  Solving for p, Initial residual = 9.1784e-05, Final residual = 3.80035e-06, No Iterations 2
time step continuity errors : sum local = 1.69625e-08, global = -7.12652e-10, cumulative = 4.80765e-06
smoothSolver:  Solving for omega, Initial residual = 8.26126e-09, Final residual = 8.26126e-09, No Iterations 0
smoothSolver:  Solving for k, Initial residual = 4.49387e-08, Final residual = 4.04902e-09, No Iterations 1
ExecutionTime = 63.4 s  ClockTime = 64 s

forces forcesFish write:
    Sum of forces
        Total    : (0.14238 0.0020842 -0.000208868)
        Pressure : (0.0362899 0.00203916 -0.000227828)
        Viscous  : (0.10609 4.50345e-05 1.896e-05)
    Sum of moments
        Total    : (-3.76006e-08 5.32274e-05 0.000584879)
        Pressure : (-3.88019e-08 5.36992e-05 0.000535685)
        Viscous  : (1.20131e-09 -4.71831e-07 4.91943e-05)
    writing force and moment files.

Time = 122

smoothSolver:  Solving for Ux, Initial residual = 8.34629e-07, Final residual = 4.36457e-08, No Iterations 1
smoothSolver:  Solving for Uy, Initial residual = 1.79366e-05, Final residual = 1.19559e-06, No Iterations 1
smoothSolver:  Solving for Uz, Initial residual = 2.25497e-05, Final residual = 1.52594e-06, No Iterations 1
GAMG:  Solving for p, Initial residual = 8.61013e-05, Final residual = 3.46609e-06, No Iterations 2
time step continuity errors : sum local = 1.5471e-08, global = 1.78146e-09, cumulative = 4.80943e-06
smoothSolver:  Solving for omega, Initial residual = 8.99832e-09, Final residual = 8.99832e-09, No Iterations 0
smoothSolver:  Solving for k, Initial residual = 4.24815e-08, Final residual = 3.74496e-09, No Iterations 1
ExecutionTime = 63.85 s  ClockTime = 64 s

forces forcesFish write:
    Sum of forces
        Total    : (0.142379 0.00208462 -0.000208774)
        Pressure : (0.0362895 0.00203959 -0.000227732)
        Viscous  : (0.10609 4.50343e-05 1.89585e-05)
    Sum of moments
        Total    : (-3.76512e-08 5.32018e-05 0.000585039)
        Pressure : (-3.89362e-08 5.36732e-05 0.000535847)
        Viscous  : (1.28507e-09 -4.71336e-07 4.91925e-05)
    writing force and moment files.

Time = 123

smoothSolver:  Solving for Ux, Initial residual = 7.89526e-07, Final residual = 4.08362e-08, No Iterations 1
smoothSolver:  Solving for Uy, Initial residual = 1.67292e-05, Final residual = 1.10137e-06, No Iterations 1
smoothSolver:  Solving for Uz, Initial residual = 2.10123e-05, Final residual = 1.40953e-06, No Iterations 1
GAMG:  Solving for p, Initial residual = 8.08331e-05, Final residual = 3.21058e-06, No Iterations 2
time step continuity errors : sum local = 1.4331e-08, global = 3.84967e-09, cumulative = 4.81328e-06
smoothSolver:  Solving for omega, Initial residual = 9.68077e-09, Final residual = 9.68077e-09, No Iterations 0
smoothSolver:  Solving for k, Initial residual = 4.01663e-08, Final residual = 3.46381e-09, No Iterations 1
ExecutionTime = 64.37 s  ClockTime = 65 s

forces forcesFish write:
    Sum of forces
        Total    : (0.142379 0.00208506 -0.000208689)
        Pressure : (0.0362891 0.00204002 -0.000227646)
        Viscous  : (0.106089 4.50343e-05 1.89571e-05)
    Sum of moments
        Total    : (-3.76882e-08 5.31787e-05 0.000585201)
        Pressure : (-3.90507e-08 5.36496e-05 0.00053601)
        Viscous  : (1.36249e-09 -4.70891e-07 4.9191e-05)
    writing force and moment files.

Time = 124

smoothSolver:  Solving for Ux, Initial residual = 7.39636e-07, Final residual = 3.79332e-08, No Iterations 1
smoothSolver:  Solving for Uy, Initial residual = 1.56061e-05, Final residual = 1.01695e-06, No Iterations 1
smoothSolver:  Solving for Uz, Initial residual = 1.9569e-05, Final residual = 1.30477e-06, No Iterations 1
GAMG:  Solving for p, Initial residual = 7.59676e-05, Final residual = 3.00072e-06, No Iterations 2
time step continuity errors : sum local = 1.33947e-08, global = 5.21781e-09, cumulative = 4.8185e-06
smoothSolver:  Solving for omega, Initial residual = 1.031e-08, Final residual = 1.58526e-09, No Iterations 1
smoothSolver:  Solving for k, Initial residual = 3.76812e-08, Final residual = 3.15153e-09, No Iterations 1
ExecutionTime = 64.86 s  ClockTime = 65 s

forces forcesFish write:
    Sum of forces
        Total    : (0.142378 0.00208549 -0.000208612)
        Pressure : (0.0362888 0.00204046 -0.000227568)
        Viscous  : (0.106089 4.50346e-05 1.89559e-05)
    Sum of moments
        Total    : (-3.77151e-08 5.31578e-05 0.000585363)
        Pressure : (-3.91488e-08 5.36283e-05 0.000536174)
        Viscous  : (1.43374e-09 -4.70491e-07 4.91896e-05)
    writing force and moment files.

Time = 125

smoothSolver:  Solving for Ux, Initial residual = 6.82556e-07, Final residual = 3.48501e-08, No Iterations 1
smoothSolver:  Solving for Uy, Initial residual = 1.456e-05, Final residual = 9.40951e-07, No Iterations 1
smoothSolver:  Solving for Uz, Initial residual = 1.82215e-05, Final residual = 1.20999e-06, No Iterations 1
GAMG:  Solving for p, Initial residual = 7.13307e-05, Final residual = 2.91975e-06, No Iterations 2
time step continuity errors : sum local = 1.30337e-08, global = 5.60177e-09, cumulative = 4.8241e-06
smoothSolver:  Solving for omega, Initial residual = 7.75559e-09, Final residual = 7.75559e-09, No Iterations 0
smoothSolver:  Solving for k, Initial residual = 3.54037e-08, Final residual = 2.92386e-09, No Iterations 1
ExecutionTime = 65.32 s  ClockTime = 66 s

forces forcesFish write:
    Sum of forces
        Total    : (0.142377 0.00208594 -0.000208543)
        Pressure : (0.0362886 0.0020409 -0.000227498)
        Viscous  : (0.106089 4.50353e-05 1.89549e-05)
    Sum of moments
        Total    : (-3.77357e-08 5.31392e-05 0.000585527)
        Pressure : (-3.92347e-08 5.36093e-05 0.000536338)
        Viscous  : (1.49896e-09 -4.70136e-07 4.91886e-05)
    writing force and moment files.

Time = 126

smoothSolver:  Solving for Ux, Initial residual = 6.14221e-07, Final residual = 3.14064e-08, No Iterations 1
smoothSolver:  Solving for Uy, Initial residual = 1.35839e-05, Final residual = 8.72472e-07, No Iterations 1
smoothSolver:  Solving for Uz, Initial residual = 1.69659e-05, Final residual = 1.125e-06, No Iterations 1
GAMG:  Solving for p, Initial residual = 6.69843e-05, Final residual = 2.98111e-06, No Iterations 2
time step continuity errors : sum local = 1.33083e-08, global = 5.01742e-09, cumulative = 4.82912e-06
smoothSolver:  Solving for omega, Initial residual = 8.27006e-09, Final residual = 8.27006e-09, No Iterations 0
smoothSolver:  Solving for k, Initial residual = 3.33715e-08, Final residual = 2.71136e-09, No Iterations 1
ExecutionTime = 65.82 s  ClockTime = 66 s

forces forcesFish write:
    Sum of forces
        Total    : (0.142377 0.00208638 -0.000208482)
        Pressure : (0.0362883 0.00204134 -0.000227436)
        Viscous  : (0.106089 4.50363e-05 1.89539e-05)
    Sum of moments
        Total    : (-3.77546e-08 5.31229e-05 0.00058569)
        Pressure : (-3.93131e-08 5.35927e-05 0.000536502)
        Viscous  : (1.55848e-09 -4.69816e-07 4.91878e-05)
    writing force and moment files.

Time = 127

smoothSolver:  Solving for Ux, Initial residual = 5.32172e-07, Final residual = 2.74966e-08, No Iterations 1
smoothSolver:  Solving for Uy, Initial residual = 1.26566e-05, Final residual = 8.09052e-07, No Iterations 1
smoothSolver:  Solving for Uz, Initial residual = 1.57705e-05, Final residual = 1.04632e-06, No Iterations 1
GAMG:  Solving for p, Initial residual = 6.28892e-05, Final residual = 2.90305e-06, No Iterations 2
time step continuity errors : sum local = 1.29605e-08, global = 4.01519e-09, cumulative = 4.83313e-06
smoothSolver:  Solving for omega, Initial residual = 8.74479e-09, Final residual = 8.74479e-09, No Iterations 0
smoothSolver:  Solving for k, Initial residual = 3.13526e-08, Final residual = 2.51014e-09, No Iterations 1
ExecutionTime = 66.34 s  ClockTime = 67 s

forces forcesFish write:
    Sum of forces
        Total    : (0.142376 0.00208681 -0.000208431)
        Pressure : (0.0362882 0.00204177 -0.000227385)
        Viscous  : (0.106088 4.50378e-05 1.89531e-05)
    Sum of moments
        Total    : (-3.77794e-08 5.31092e-05 0.000585849)
        Pressure : (-3.9392e-08 5.35787e-05 0.000536662)
        Viscous  : (1.61255e-09 -4.69529e-07 4.91872e-05)
    writing force and moment files.

Time = 128

smoothSolver:  Solving for Ux, Initial residual = 4.41137e-07, Final residual = 2.3272e-08, No Iterations 1
smoothSolver:  Solving for Uy, Initial residual = 1.17391e-05, Final residual = 7.46867e-07, No Iterations 1
smoothSolver:  Solving for Uz, Initial residual = 1.45882e-05, Final residual = 9.68626e-07, No Iterations 1
GAMG:  Solving for p, Initial residual = 5.88884e-05, Final residual = 2.70439e-06, No Iterations 2
time step continuity errors : sum local = 1.20744e-08, global = 3.25573e-09, cumulative = 4.83639e-06
smoothSolver:  Solving for omega, Initial residual = 9.18308e-09, Final residual = 9.18308e-09, No Iterations 0
smoothSolver:  Solving for k, Initial residual = 2.93249e-08, Final residual = 2.32008e-09, No Iterations 1
ExecutionTime = 66.81 s  ClockTime = 67 s

forces forcesFish write:
    Sum of forces
        Total    : (0.142376 0.00208722 -0.00020839)
        Pressure : (0.036288 0.00204218 -0.000227342)
        Viscous  : (0.106088 4.50396e-05 1.89524e-05)
    Sum of moments
        Total    : (-3.78176e-08 5.30976e-05 0.000586001)
        Pressure : (-3.9479e-08 5.35669e-05 0.000536815)
        Viscous  : (1.66142e-09 -4.69272e-07 4.91868e-05)
    writing force and moment files.

Time = 129

smoothSolver:  Solving for Ux, Initial residual = 3.54431e-07, Final residual = 1.92362e-08, No Iterations 1
smoothSolver:  Solving for Uy, Initial residual = 1.08048e-05, Final residual = 6.83177e-07, No Iterations 1
smoothSolver:  Solving for Uz, Initial residual = 1.3397e-05, Final residual = 8.88142e-07, No Iterations 1
GAMG:  Solving for p, Initial residual = 5.49824e-05, Final residual = 2.47954e-06, No Iterations 2
time step continuity errors : sum local = 1.10711e-08, global = 2.71572e-09, cumulative = 4.8391e-06
smoothSolver:  Solving for omega, Initial residual = 9.58692e-09, Final residual = 9.58692e-09, No Iterations 0
smoothSolver:  Solving for k, Initial residual = 2.7331e-08, Final residual = 2.14174e-09, No Iterations 1
ExecutionTime = 67.28 s  ClockTime = 68 s

forces forcesFish write:
    Sum of forces
        Total    : (0.142376 0.0020876 -0.000208354)
        Pressure : (0.0362879 0.00204256 -0.000227306)
        Viscous  : (0.106088 4.50417e-05 1.89517e-05)
    Sum of moments
        Total    : (-3.78712e-08 5.30876e-05 0.000586144)
        Pressure : (-3.95766e-08 5.35567e-05 0.000536957)
        Viscous  : (1.70538e-09 -4.69043e-07 4.91867e-05)
    writing force and moment files.

Time = 130

smoothSolver:  Solving for Ux, Initial residual = 2.84725e-07, Final residual = 1.58968e-08, No Iterations 1
smoothSolver:  Solving for Uy, Initial residual = 9.8626e-06, Final residual = 6.18201e-07, No Iterations 1
smoothSolver:  Solving for Uz, Initial residual = 1.22242e-05, Final residual = 8.05643e-07, No Iterations 1
GAMG:  Solving for p, Initial residual = 5.12468e-05, Final residual = 2.297e-06, No Iterations 2
time step continuity errors : sum local = 1.02566e-08, global = 1.97543e-09, cumulative = 4.84108e-06
smoothSolver:  Solving for omega, Initial residual = 9.95933e-09, Final residual = 9.95933e-09, No Iterations 0
smoothSolver:  Solving for k, Initial residual = 2.54001e-08, Final residual = 1.97437e-09, No Iterations 1
ExecutionTime = 67.77 s  ClockTime = 68 s

forces forcesFish write:
    Sum of forces
        Total    : (0.142376 0.00208795 -0.000208324)
        Pressure : (0.0362879 0.00204291 -0.000227275)
        Viscous  : (0.106088 4.50442e-05 1.89511e-05)
    Sum of moments
        Total    : (-3.79369e-08 5.30785e-05 0.000586277)
        Pressure : (-3.96816e-08 5.35474e-05 0.00053709)
        Viscous  : (1.74474e-09 -4.6884e-07 4.91868e-05)
    writing force and moment files.

Time = 131

smoothSolver:  Solving for Ux, Initial residual = 2.3775e-07, Final residual = 1.34927e-08, No Iterations 1
smoothSolver:  Solving for Uy, Initial residual = 8.96736e-06, Final residual = 5.55307e-07, No Iterations 1
smoothSolver:  Solving for Uz, Initial residual = 1.11253e-05, Final residual = 7.25314e-07, No Iterations 1
GAMG:  Solving for p, Initial residual = 4.76786e-05, Final residual = 2.13841e-06, No Iterations 2
time step continuity errors : sum local = 9.54876e-09, global = 8.89167e-10, cumulative = 4.84197e-06
smoothSolver:  Solving for omega, Initial residual = 1.03032e-08, Final residual = 1.55122e-09, No Iterations 1
smoothSolver:  Solving for k, Initial residual = 2.32798e-08, Final residual = 1.76828e-09, No Iterations 1
ExecutionTime = 68.32 s  ClockTime = 69 s

forces forcesFish write:
    Sum of forces
        Total    : (0.142375 0.00208828 -0.000208297)
        Pressure : (0.0362878 0.00204324 -0.000227247)
        Viscous  : (0.106088 4.50468e-05 1.89506e-05)
    Sum of moments
        Total    : (-3.80094e-08 5.30702e-05 0.000586404)
        Pressure : (-3.97892e-08 5.35388e-05 0.000537217)
        Viscous  : (1.77983e-09 -4.6866e-07 4.9187e-05)
    writing force and moment files.

Time = 132

smoothSolver:  Solving for Ux, Initial residual = 2.17346e-07, Final residual = 1.23158e-08, No Iterations 1
smoothSolver:  Solving for Uy, Initial residual = 8.18176e-06, Final residual = 4.9893e-07, No Iterations 1
smoothSolver:  Solving for Uz, Initial residual = 1.01288e-05, Final residual = 6.51246e-07, No Iterations 1
GAMG:  Solving for p, Initial residual = 4.43051e-05, Final residual = 1.96342e-06, No Iterations 2
time step continuity errors : sum local = 8.7676e-09, global = -3.69687e-10, cumulative = 4.8416e-06
smoothSolver:  Solving for omega, Initial residual = 7.4026e-09, Final residual = 7.4026e-09, No Iterations 0
smoothSolver:  Solving for k, Initial residual = 2.13206e-08, Final residual = 1.62689e-09, No Iterations 1
ExecutionTime = 68.87 s  ClockTime = 69 s

forces forcesFish write:
    Sum of forces
        Total    : (0.142375 0.0020886 -0.000208273)
        Pressure : (0.0362878 0.00204356 -0.000227223)
        Viscous  : (0.106087 4.50497e-05 1.89502e-05)
    Sum of moments
        Total    : (-3.80854e-08 5.30624e-05 0.000586525)
        Pressure : (-3.98964e-08 5.35309e-05 0.000537338)
        Viscous  : (1.81092e-09 -4.68503e-07 4.91873e-05)
    writing force and moment files.

Time = 133

smoothSolver:  Solving for Ux, Initial residual = 2.14072e-07, Final residual = 1.19299e-08, No Iterations 1
smoothSolver:  Solving for Uy, Initial residual = 7.52156e-06, Final residual = 4.50943e-07, No Iterations 1
smoothSolver:  Solving for Uz, Initial residual = 9.24804e-06, Final residual = 5.86622e-07, No Iterations 1
GAMG:  Solving for p, Initial residual = 4.11667e-05, Final residual = 1.7485e-06, No Iterations 2
time step continuity errors : sum local = 7.80801e-09, global = -1.61682e-09, cumulative = 4.83998e-06
smoothSolver:  Solving for omega, Initial residual = 7.68045e-09, Final residual = 7.68045e-09, No Iterations 0
smoothSolver:  Solving for k, Initial residual = 1.9584e-08, Final residual = 1.48854e-09, No Iterations 1
ExecutionTime = 69.35 s  ClockTime = 70 s


SIMPLE solution converged in 133 iterations

forces forcesFish write:
    Sum of forces
        Total    : (0.142375 0.00208892 -0.000208253)
        Pressure : (0.0362877 0.00204386 -0.000227203)
        Viscous  : (0.106087 4.50527e-05 1.89498e-05)
    Sum of moments
        Total    : (-3.81611e-08 5.30555e-05 0.000586644)
        Pressure : (-3.99996e-08 5.35238e-05 0.000537456)
        Viscous  : (1.83845e-09 -4.6836e-07 4.91878e-05)
    writing force and moment files.

End

