/*---------------------------------------------------------------------------*\
| =========                 |                                                 |
| \\      /  F ield         | OpenFOAM: The Open Source CFD Toolbox           |
|  \\    /   O peration     | Version:  2512                                  |
|   \\  /    A nd           | Website:  www.openfoam.com                      |
|    \\/     M anipulation  |                                                 |
\*---------------------------------------------------------------------------*/
Build  : _bd2b6720-20260127 OPENFOAM=2512 version=2512
Arch   : "LSB;label=32;scalar=64"
Exec   : simpleFoam
Date   : Mar 28 2026
Time   : 17:32:48
Host   : mathias-laptop
PID    : 9652
I/O    : uncollated
Case   : /home/mat/OpenFOAM/mat-run/speed_sweep_runs/U_0p4
nProcs : 1
trapFpe: Floating point exception trapping enabled (FOAM_SIGFPE).
memory pool : not available
fileModificationChecking : Monitoring run-time modified files using timeStampMaster (fileModificationSkew 5, maxFileModificationPolls 20)
allowSystemOperations : Allowing user-supplied system call operations

// * * * * * * * * * * * * * * * * * * * * * * * * * * * * * * * * * * * * * //
Create time

Create mesh for time = 0


SIMPLE: convergence criteria
    field p	 tolerance 0.0001
    field U	 tolerance 1e-05
    field "(k|omega)"	 tolerance 1e-05

Reading field p

Reading field U

Reading/calculating face flux field phi

Selecting incompressible transport model Newtonian
Selecting turbulence model type RAS
Selecting RAS turbulence model kOmegaSST
Selecting patchDistMethod meshWave
RAS
{
    RASModel        kOmegaSST;
    turbulence      on;
    printCoeffs     on;
    alphaK1         0.85;
    alphaK2         1;
    alphaOmega1     0.5;
    alphaOmega2     0.856;
    gamma1          0.555556;
    gamma2          0.44;
    beta1           0.075;
    beta2           0.0828;
    betaStar        0.09;
    a1              0.31;
    b1              1;
    c1              10;
    F3              false;
    decayControl    false;
    kInf            0;
    omegaInf        0;
}

No MRF models present

No finite volume options present

Starting time loop

forces forcesFish:
    rho: rhoInf
    Freestream density (rhoInf) set to 1000
    Not including porosity effects

Time = 1

smoothSolver:  Solving for Ux, Initial residual = 1, Final residual = 0.0936408, No Iterations 1
smoothSolver:  Solving for Uy, Initial residual = 1, Final residual = 0.0334908, No Iterations 2
smoothSolver:  Solving for Uz, Initial residual = 1, Final residual = 0.0298548, No Iterations 2
GAMG:  Solving for p, Initial residual = 1, Final residual = 0.0624157, No Iterations 5
time step continuity errors : sum local = 4.98598e-06, global = -5.54262e-07, cumulative = -5.54262e-07
smoothSolver:  Solving for omega, Initial residual = 0.0144533, Final residual = 0.000704688, No Iterations 1
bounding omega, min: -6.1026 max: 10124.2 average: 98.8813
smoothSolver:  Solving for k, Initial residual = 1, Final residual = 0.0544551, No Iterations 1
ExecutionTime = 2.09 s  ClockTime = 2 s

forces forcesFish write:
    Sum of forces
        Total    : (0.283831 0.00736051 -0.00258288)
        Pressure : (0.218407 0.00733441 -0.00258159)
        Viscous  : (0.0654241 2.60967e-05 -1.29062e-06)
    Sum of moments
        Total    : (-1.08664e-06 -1.3403e-05 0.00498352)
        Pressure : (-1.05295e-06 -1.49267e-05 0.00494616)
        Viscous  : (-3.36952e-08 1.52373e-06 3.73587e-05)
    writing force and moment files.

Time = 2

smoothSolver:  Solving for Ux, Initial residual = 0.0267472, Final residual = 0.00144133, No Iterations 2
smoothSolver:  Solving for Uy, Initial residual = 0.336244, Final residual = 0.028689, No Iterations 2
smoothSolver:  Solving for Uz, Initial residual = 0.297561, Final residual = 0.0263428, No Iterations 2
GAMG:  Solving for p, Initial residual = 0.092393, Final residual = 0.00806931, No Iterations 3
time step continuity errors : sum local = 8.78427e-06, global = -5.21475e-07, cumulative = -1.07574e-06
smoothSolver:  Solving for omega, Initial residual = 0.0077802, Final residual = 0.000405857, No Iterations 1
smoothSolver:  Solving for k, Initial residual = 0.471327, Final residual = 0.0281584, No Iterations 1
ExecutionTime = 2.61 s  ClockTime = 2 s

forces forcesFish write:
    Sum of forces
        Total    : (0.33641 0.00839961 -0.00286998)
        Pressure : (0.274356 0.00838715 -0.00288311)
        Viscous  : (0.062054 1.24544e-05 1.31265e-05)
    Sum of moments
        Total    : (1.00354e-07 -3.89391e-05 0.00631788)
        Pressure : (4.69881e-08 -3.96965e-05 0.00628394)
        Viscous  : (5.33663e-08 7.57363e-07 3.39332e-05)
    writing force and moment files.

Time = 3

smoothSolver:  Solving for Ux, Initial residual = 0.00445468, Final residual = 0.000255731, No Iterations 2
smoothSolver:  Solving for Uy, Initial residual = 0.166313, Final residual = 0.0139053, No Iterations 2
smoothSolver:  Solving for Uz, Initial residual = 0.164624, Final residual = 0.0143031, No Iterations 2
GAMG:  Solving for p, Initial residual = 0.250226, Final residual = 0.0244941, No Iterations 2
time step continuity errors : sum local = 1.68682e-05, global = -5.8394e-07, cumulative = -1.65968e-06
smoothSolver:  Solving for omega, Initial residual = 0.00506691, Final residual = 0.000287188, No Iterations 1
smoothSolver:  Solving for k, Initial residual = 0.284156, Final residual = 0.0181207, No Iterations 1
ExecutionTime = 3.1 s  ClockTime = 3 s

forces forcesFish write:
    Sum of forces
        Total    : (0.311786 0.00756489 -0.00270054)
        Pressure : (0.252143 0.00756469 -0.00272379)
        Viscous  : (0.0596424 1.97167e-07 2.32486e-05)
    Sum of moments
        Total    : (1.61952e-06 -1.00958e-05 0.00582078)
        Pressure : (1.50181e-06 -1.02478e-05 0.0057909)
        Viscous  : (1.17713e-07 1.52047e-07 2.98827e-05)
    writing force and moment files.

Time = 4

smoothSolver:  Solving for Ux, Initial residual = 0.00228649, Final residual = 0.000130486, No Iterations 2
smoothSolver:  Solving for Uy, Initial residual = 0.0973043, Final residual = 0.00800215, No Iterations 2
smoothSolver:  Solving for Uz, Initial residual = 0.100231, Final residual = 0.00857427, No Iterations 2
GAMG:  Solving for p, Initial residual = 0.40346, Final residual = 0.0175095, No Iterations 3
time step continuity errors : sum local = 1.05404e-05, global = -5.1053e-07, cumulative = -2.17021e-06
smoothSolver:  Solving for omega, Initial residual = 0.00354414, Final residual = 0.000213228, No Iterations 1
smoothSolver:  Solving for k, Initial residual = 0.191228, Final residual = 0.0127951, No Iterations 1
ExecutionTime = 3.63 s  ClockTime = 3 s

forces forcesFish write:
    Sum of forces
        Total    : (0.241427 0.00545482 -0.00182742)
        Pressure : (0.183675 0.00546636 -0.00185551)
        Viscous  : (0.0577519 -1.15442e-05 2.80989e-05)
    Sum of moments
        Total    : (3.35331e-06 -4.80125e-05 0.00421093)
        Pressure : (3.19528e-06 -4.7786e-05 0.00418564)
        Viscous  : (1.58034e-07 -2.26501e-07 2.52929e-05)
    writing force and moment files.

Time = 5

smoothSolver:  Solving for Ux, Initial residual = 0.00134623, Final residual = 7.44963e-05, No Iterations 2
smoothSolver:  Solving for Uy, Initial residual = 0.0611501, Final residual = 0.00491105, No Iterations 2
smoothSolver:  Solving for Uz, Initial residual = 0.0581776, Final residual = 0.00485072, No Iterations 2
GAMG:  Solving for p, Initial residual = 0.174317, Final residual = 0.00882977, No Iterations 3
time step continuity errors : sum local = 1.27018e-05, global = -2.9996e-07, cumulative = -2.47017e-06
smoothSolver:  Solving for omega, Initial residual = 0.00260206, Final residual = 0.000163712, No Iterations 1
smoothSolver:  Solving for k, Initial residual = 0.13828, Final residual = 0.0095995, No Iterations 1
ExecutionTime = 4.14 s  ClockTime = 4 s

forces forcesFish write:
    Sum of forces
        Total    : (0.15769 0.00310871 -0.000857544)
        Pressure : (0.101479 0.00313275 -0.000885361)
        Viscous  : (0.0562115 -2.40431e-05 2.78177e-05)
    Sum of moments
        Total    : (4.31404e-06 -7.16128e-05 0.00228677)
        Pressure : (4.13265e-06 -7.11984e-05 0.00226663)
        Viscous  : (1.81387e-07 -4.1439e-07 2.01406e-05)
    writing force and moment files.

Time = 6

smoothSolver:  Solving for Ux, Initial residual = 0.000910784, Final residual = 4.34245e-05, No Iterations 2
smoothSolver:  Solving for Uy, Initial residual = 0.0346125, Final residual = 0.0023934, No Iterations 2
smoothSolver:  Solving for Uz, Initial residual = 0.0296075, Final residual = 0.00209262, No Iterations 2
GAMG:  Solving for p, Initial residual = 0.0976605, Final residual = 0.00552844, No Iterations 3
time step continuity errors : sum local = 1.19421e-05, global = 2.25457e-08, cumulative = -2.44762e-06
smoothSolver:  Solving for omega, Initial residual = 0.00198047, Final residual = 0.000128961, No Iterations 1
smoothSolver:  Solving for k, Initial residual = 0.105274, Final residual = 0.00752513, No Iterations 1
ExecutionTime = 4.62 s  ClockTime = 4 s

forces forcesFish write:
    Sum of forces
        Total    : (0.0826723 0.00129269 -2.37913e-05)
        Pressure : (0.0277363 0.00132914 -4.71444e-05)
        Viscous  : (0.054936 -3.64474e-05 2.33532e-05)
    Sum of moments
        Total    : (4.30391e-06 -6.6205e-05 0.000600509)
        Pressure : (4.12171e-06 -6.59086e-05 0.000585295)
        Viscous  : (1.82203e-07 -2.96433e-07 1.52134e-05)
    writing force and moment files.

Time = 7

smoothSolver:  Solving for Ux, Initial residual = 0.000735348, Final residual = 2.85731e-05, No Iterations 2
smoothSolver:  Solving for Uy, Initial residual = 0.0244933, Final residual = 0.0009575, No Iterations 2
smoothSolver:  Solving for Uz, Initial residual = 0.0204442, Final residual = 0.000801472, No Iterations 2
GAMG:  Solving for p, Initial residual = 0.0598068, Final residual = 0.0033684, No Iterations 3
time step continuity errors : sum local = 9.01904e-06, global = 3.74333e-07, cumulative = -2.07329e-06
smoothSolver:  Solving for omega, Initial residual = 0.00155099, Final residual = 0.000103741, No Iterations 1
smoothSolver:  Solving for k, Initial residual = 0.0833597, Final residual = 0.00610319, No Iterations 1
ExecutionTime = 5.13 s  ClockTime = 5 s

forces forcesFish write:
    Sum of forces
        Total    : (0.0295752 0.00031935 0.000525064)
        Pressure : (-0.0242872 0.000366176 0.000508502)
        Viscous  : (0.0538624 -4.68258e-05 1.65617e-05)
    Sum of moments
        Total    : (3.18091e-06 -3.0319e-05 -0.000531752)
        Pressure : (3.02073e-06 -3.0375e-05 -0.000542874)
        Viscous  : (1.60184e-07 5.60108e-08 1.11218e-05)
    writing force and moment files.

Time = 8

smoothSolver:  Solving for Ux, Initial residual = 0.000684174, Final residual = 2.66121e-05, No Iterations 2
smoothSolver:  Solving for Uy, Initial residual = 0.0315118, Final residual = 0.00188471, No Iterations 2
smoothSolver:  Solving for Uz, Initial residual = 0.0357651, Final residual = 0.00240472, No Iterations 2
GAMG:  Solving for p, Initial residual = 0.0459477, Final residual = 0.00186168, No Iterations 3
time step continuity errors : sum local = 5.49365e-06, global = 6.73087e-07, cumulative = -1.4002e-06
smoothSolver:  Solving for omega, Initial residual = 0.00124307, Final residual = 8.49636e-05, No Iterations 1
smoothSolver:  Solving for k, Initial residual = 0.0678113, Final residual = 0.0050652, No Iterations 1
ExecutionTime = 5.62 s  ClockTime = 5 s

forces forcesFish write:
    Sum of forces
        Total    : (0.00290446 6.09703e-05 0.000738134)
        Pressure : (-0.0500315 0.000113965 0.000728435)
        Viscous  : (0.0529359 -5.2995e-05 9.69881e-06)
    Sum of moments
        Total    : (1.36305e-06 2.32407e-05 -0.0010359)
        Pressure : (1.23908e-06 2.27505e-05 -0.00104428)
        Viscous  : (1.23973e-07 4.90208e-07 8.38291e-06)
    writing force and moment files.

Time = 9

smoothSolver:  Solving for Ux, Initial residual = 0.000658242, Final residual = 2.65354e-05, No Iterations 2
smoothSolver:  Solving for Uy, Initial residual = 0.0352433, Final residual = 0.00236418, No Iterations 2
smoothSolver:  Solving for Uz, Initial residual = 0.0492315, Final residual = 0.00361359, No Iterations 2
GAMG:  Solving for p, Initial residual = 0.0496744, Final residual = 0.00344072, No Iterations 2
time step continuity errors : sum local = 1.03476e-05, global = 9.98026e-07, cumulative = -4.02175e-07
smoothSolver:  Solving for omega, Initial residual = 0.00101484, Final residual = 7.06423e-05, No Iterations 1
smoothSolver:  Solving for k, Initial residual = 0.0565164, Final residual = 0.00429372, No Iterations 1
ExecutionTime = 6.11 s  ClockTime = 6 s

forces forcesFish write:
    Sum of forces
        Total    : (0.000441209 0.000161944 0.000519317)
        Pressure : (-0.0516735 0.00021592 0.000515051)
        Viscous  : (0.0521148 -5.39752e-05 4.26582e-06)
    Sum of moments
        Total    : (6.65883e-08 0.000101909 -0.00102193)
        Pressure : (-1.65422e-08 0.000101022 -0.00102901)
        Viscous  : (8.31306e-08 8.87573e-07 7.08207e-06)
    writing force and moment files.

Time = 10

smoothSolver:  Solving for Ux, Initial residual = 0.000610926, Final residual = 2.44885e-05, No Iterations 2
smoothSolver:  Solving for Uy, Initial residual = 0.0325728, Final residual = 0.00220058, No Iterations 2
smoothSolver:  Solving for Uz, Initial residual = 0.0540319, Final residual = 0.0039736, No Iterations 2
GAMG:  Solving for p, Initial residual = 0.0592423, Final residual = 0.00432852, No Iterations 2
time step continuity errors : sum local = 1.26584e-05, global = 1.29766e-06, cumulative = 8.95483e-07
smoothSolver:  Solving for omega, Initial residual = 0.000840652, Final residual = 5.94432e-05, No Iterations 1
smoothSolver:  Solving for k, Initial residual = 0.0478919, Final residual = 0.00369155, No Iterations 1
ExecutionTime = 6.58 s  ClockTime = 6 s

forces forcesFish write:
    Sum of forces
        Total    : (0.0119632 0.000410058 0.000277188)
        Pressure : (-0.039392 0.000460315 0.000276011)
        Viscous  : (0.0513552 -5.02572e-05 1.17633e-06)
    Sum of moments
        Total    : (-1.60732e-06 0.000143827 -0.000714617)
        Pressure : (-1.6524e-06 0.000142677 -0.000721629)
        Viscous  : (4.50793e-08 1.1503e-06 7.01169e-06)
    writing force and moment files.

Time = 11

smoothSolver:  Solving for Ux, Initial residual = 0.000529002, Final residual = 2.04051e-05, No Iterations 2
smoothSolver:  Solving for Uy, Initial residual = 0.026804, Final residual = 0.00172958, No Iterations 2
smoothSolver:  Solving for Uz, Initial residual = 0.0491582, Final residual = 0.0034777, No Iterations 2
GAMG:  Solving for p, Initial residual = 0.0641495, Final residual = 0.00518937, No Iterations 2
time step continuity errors : sum local = 1.41008e-05, global = 1.45257e-06, cumulative = 2.34806e-06
smoothSolver:  Solving for omega, Initial residual = 0.000704832, Final residual = 5.05285e-05, No Iterations 1
smoothSolver:  Solving for k, Initial residual = 0.0412102, Final residual = 0.00321642, No Iterations 1
ExecutionTime = 7.09 s  ClockTime = 7 s

forces forcesFish write:
    Sum of forces
        Total    : (0.0307767 0.000601335 6.39831e-05)
        Pressure : (-0.0198519 0.000644225 6.34012e-05)
        Viscous  : (0.0506286 -4.28898e-05 5.81824e-07)
    Sum of moments
        Total    : (-3.10905e-06 0.000146485 -0.000279912)
        Pressure : (-3.1248e-06 0.000145217 -0.000287744)
        Viscous  : (1.57495e-08 1.26837e-06 7.83176e-06)
    writing force and moment files.

Time = 12

smoothSolver:  Solving for Ux, Initial residual = 0.000438066, Final residual = 1.5821e-05, No Iterations 2
smoothSolver:  Solving for Uy, Initial residual = 0.0206265, Final residual = 0.00112128, No Iterations 2
smoothSolver:  Solving for Uz, Initial residual = 0.0366091, Final residual = 0.00224283, No Iterations 2
GAMG:  Solving for p, Initial residual = 0.0651468, Final residual = 0.00566726, No Iterations 2
time step continuity errors : sum local = 1.3699e-05, global = 1.46432e-06, cumulative = 3.81238e-06
smoothSolver:  Solving for omega, Initial residual = 0.000596998, Final residual = 4.32896e-05, No Iterations 1
smoothSolver:  Solving for k, Initial residual = 0.0358372, Final residual = 0.00282749, No Iterations 1
ExecutionTime = 7.62 s  ClockTime = 7 s

forces forcesFish write:
    Sum of forces
        Total    : (0.0504528 0.000638483 -7.79055e-05)
        Pressure : (0.000523976 0.00067201 -7.99525e-05)
        Viscous  : (0.0499288 -3.35265e-05 2.04702e-06)
    Sum of moments
        Total    : (-4.043e-06 0.000112642 0.000138153)
        Pressure : (-4.03906e-06 0.000111402 0.000129055)
        Viscous  : (-3.93346e-09 1.24043e-06 9.09787e-06)
    writing force and moment files.

Time = 13

smoothSolver:  Solving for Ux, Initial residual = 0.000360747, Final residual = 1.2133e-05, No Iterations 2
smoothSolver:  Solving for Uy, Initial residual = 0.0183484, Final residual = 0.000713384, No Iterations 2
smoothSolver:  Solving for Uz, Initial residual = 0.0252321, Final residual = 0.00104662, No Iterations 2
GAMG:  Solving for p, Initial residual = 0.0632118, Final residual = 0.00553873, No Iterations 2
time step continuity errors : sum local = 1.15953e-05, global = 1.33681e-06, cumulative = 5.14919e-06
smoothSolver:  Solving for omega, Initial residual = 0.000510015, Final residual = 3.73307e-05, No Iterations 1
smoothSolver:  Solving for k, Initial residual = 0.0314823, Final residual = 0.00250736, No Iterations 1
ExecutionTime = 8.15 s  ClockTime = 8 s

forces forcesFish write:
    Sum of forces
        Total    : (0.0663804 0.000520246 -0.000137742)
        Pressure : (0.0171237 0.000544197 -0.0001425)
        Viscous  : (0.0492567 -2.39513e-05 4.75789e-06)
    Sum of moments
        Total    : (-4.24386e-06 5.46943e-05 0.0004493)
        Pressure : (-4.2309e-06 5.35879e-05 0.000438878)
        Viscous  : (-1.29606e-08 1.10639e-06 1.04217e-05)
    writing force and moment files.

Time = 14

smoothSolver:  Solving for Ux, Initial residual = 0.000313234, Final residual = 1.04777e-05, No Iterations 2
smoothSolver:  Solving for Uy, Initial residual = 0.0227328, Final residual = 0.00103034, No Iterations 2
smoothSolver:  Solving for Uz, Initial residual = 0.0255036, Final residual = 0.00118722, No Iterations 2
GAMG:  Solving for p, Initial residual = 0.0613422, Final residual = 0.00475764, No Iterations 2
time step continuity errors : sum local = 8.64686e-06, global = 1.10614e-06, cumulative = 6.25533e-06
smoothSolver:  Solving for omega, Initial residual = 0.000438801, Final residual = 3.23649e-05, No Iterations 1
smoothSolver:  Solving for k, Initial residual = 0.0278534, Final residual = 0.00223651, No Iterations 1
ExecutionTime = 8.7 s  ClockTime = 9 s

forces forcesFish write:
    Sum of forces
        Total    : (0.0761855 0.000319867 -0.000127215)
        Pressure : (0.0275677 0.000335562 -0.000135017)
        Viscous  : (0.0486178 -1.56949e-05 7.80156e-06)
    Sum of moments
        Total    : (-3.76528e-06 -1.02039e-05 0.000619974)
        Pressure : (-3.75311e-06 -1.11155e-05 0.000608399)
        Viscous  : (-1.21709e-08 9.11558e-07 1.15752e-05)
    writing force and moment files.

Time = 15

smoothSolver:  Solving for Ux, Initial residual = 0.000297047, Final residual = 9.69768e-06, No Iterations 2
smoothSolver:  Solving for Uy, Initial residual = 0.0292581, Final residual = 0.00152886, No Iterations 2
smoothSolver:  Solving for Uz, Initial residual = 0.0267695, Final residual = 0.00149977, No Iterations 2
GAMG:  Solving for p, Initial residual = 0.0623726, Final residual = 0.00393917, No Iterations 2
time step continuity errors : sum local = 6.47578e-06, global = 8.52669e-07, cumulative = 7.108e-06
smoothSolver:  Solving for omega, Initial residual = 0.000379749, Final residual = 2.81908e-05, No Iterations 1
smoothSolver:  Solving for k, Initial residual = 0.0248185, Final residual = 0.00200695, No Iterations 1
ExecutionTime = 9.22 s  ClockTime = 9 s

forces forcesFish write:
    Sum of forces
        Total    : (0.0794844 0.000146591 -5.84223e-05)
        Pressure : (0.0314655 0.000156452 -6.88495e-05)
        Viscous  : (0.0480188 -9.86097e-06 1.04272e-05)
    Sum of moments
        Total    : (-2.81255e-06 -6.62597e-05 0.000661949)
        Pressure : (-2.80795e-06 -6.69635e-05 0.000649607)
        Viscous  : (-4.59894e-09 7.03778e-07 1.23426e-05)
    writing force and moment files.

Time = 16

smoothSolver:  Solving for Ux, Initial residual = 0.000280161, Final residual = 8.88039e-06, No Iterations 2
smoothSolver:  Solving for Uy, Initial residual = 0.0340205, Final residual = 0.00181682, No Iterations 2
smoothSolver:  Solving for Uz, Initial residual = 0.0250122, Final residual = 0.00144009, No Iterations 2
GAMG:  Solving for p, Initial residual = 0.0670967, Final residual = 0.00418074, No Iterations 2
time step continuity errors : sum local = 6.66341e-06, global = 5.56036e-07, cumulative = 7.66403e-06
smoothSolver:  Solving for omega, Initial residual = 0.000330227, Final residual = 2.46411e-05, No Iterations 1
smoothSolver:  Solving for k, Initial residual = 0.0222254, Final residual = 0.00180828, No Iterations 1
ExecutionTime = 9.72 s  ClockTime = 10 s

forces forcesFish write:
    Sum of forces
        Total    : (0.0779628 6.05509e-05 9.97825e-06)
        Pressure : (0.0304968 6.7354e-05 -2.26546e-06)
        Viscous  : (0.047466 -6.80306e-06 1.22437e-05)
    Sum of moments
        Total    : (-1.57918e-06 -9.77677e-05 0.000619425)
        Pressure : (-1.58579e-06 -9.82866e-05 0.000606787)
        Viscous  : (6.60472e-09 5.18926e-07 1.26381e-05)
    writing force and moment files.

Time = 17

smoothSolver:  Solving for Ux, Initial residual = 0.000256126, Final residual = 7.9173e-06, No Iterations 2
smoothSolver:  Solving for Uy, Initial residual = 0.0338985, Final residual = 0.00173365, No Iterations 2
smoothSolver:  Solving for Uz, Initial residual = 0.0210778, Final residual = 0.00116603, No Iterations 2
GAMG:  Solving for p, Initial residual = 0.0668084, Final residual = 0.00384806, No Iterations 2
time step continuity errors : sum local = 6.30726e-06, global = 1.25195e-07, cumulative = 7.78923e-06
smoothSolver:  Solving for omega, Initial residual = 0.000288275, Final residual = 2.15899e-05, No Iterations 1
smoothSolver:  Solving for k, Initial residual = 0.0200104, Final residual = 0.00163673, No Iterations 1
ExecutionTime = 10.21 s  ClockTime = 10 s

forces forcesFish write:
    Sum of forces
        Total    : (0.0734411 9.33125e-05 3.39991e-05)
        Pressure : (0.0264783 9.95225e-05 2.09651e-05)
        Viscous  : (0.0469627 -6.21006e-06 1.3034e-05)
    Sum of moments
        Total    : (-2.72793e-07 -0.000101037 0.000530882)
        Pressure : (-2.91036e-07 -0.00010143 0.000518337)
        Viscous  : (1.82425e-08 3.92719e-07 1.2545e-05)
    writing force and moment files.

Time = 18

smoothSolver:  Solving for Ux, Initial residual = 0.000230831, Final residual = 6.93243e-06, No Iterations 2
smoothSolver:  Solving for Uy, Initial residual = 0.0287188, Final residual = 0.00130162, No Iterations 2
smoothSolver:  Solving for Uz, Initial residual = 0.0163443, Final residual = 0.000787851, No Iterations 2
GAMG:  Solving for p, Initial residual = 0.058585, Final residual = 0.00338572, No Iterations 2
time step continuity errors : sum local = 5.98963e-06, global = -2.71805e-07, cumulative = 7.51742e-06
smoothSolver:  Solving for omega, Initial residual = 0.000252506, Final residual = 1.89616e-05, No Iterations 1
smoothSolver:  Solving for k, Initial residual = 0.018084, Final residual = 0.00148595, No Iterations 1
ExecutionTime = 10.71 s  ClockTime = 11 s

forces forcesFish write:
    Sum of forces
        Total    : (0.0676002 0.000270847 1.08973e-05)
        Pressure : (0.0210933 0.000278285 -1.99225e-06)
        Viscous  : (0.0465069 -7.43819e-06 1.28895e-05)
    Sum of moments
        Total    : (8.47594e-07 -7.77923e-05 0.000435054)
        Pressure : (8.19904e-07 -7.81195e-05 0.000422862)
        Viscous  : (2.76906e-08 3.2729e-07 1.21916e-05)
    writing force and moment files.

Time = 19

smoothSolver:  Solving for Ux, Initial residual = 0.000205343, Final residual = 6.02535e-06, No Iterations 2
smoothSolver:  Solving for Uy, Initial residual = 0.0215768, Final residual = 0.00075552, No Iterations 2
smoothSolver:  Solving for Uz, Initial residual = 0.0123667, Final residual = 0.00043846, No Iterations 2
GAMG:  Solving for p, Initial residual = 0.0477543, Final residual = 0.0028202, No Iterations 2
time step continuity errors : sum local = 5.47444e-06, global = -5.39223e-07, cumulative = 6.9782e-06
smoothSolver:  Solving for omega, Initial residual = 0.000221853, Final residual = 1.66915e-05, No Iterations 1
smoothSolver:  Solving for k, Initial residual = 0.0164139, Final residual = 0.00135399, No Iterations 1
ExecutionTime = 11.2 s  ClockTime = 11 s

forces forcesFish write:
    Sum of forces
        Total    : (0.0619758 0.000552721 -4.71205e-05)
        Pressure : (0.0158835 0.000562251 -5.91947e-05)
        Viscous  : (0.0460924 -9.52997e-06 1.20742e-05)
    Sum of moments
        Total    : (1.59963e-06 -3.70931e-05 0.000357771)
        Pressure : (1.56579e-06 -3.74145e-05 0.000346075)
        Viscous  : (3.3841e-08 3.21359e-07 1.16957e-05)
    writing force and moment files.

Time = 20

smoothSolver:  Solving for Ux, Initial residual = 0.000178177, Final residual = 5.1848e-06, No Iterations 2
smoothSolver:  Solving for Uy, Initial residual = 0.0168647, Final residual = 0.000490754, No Iterations 2
smoothSolver:  Solving for Uz, Initial residual = 0.0113136, Final residual = 0.000389322, No Iterations 2
GAMG:  Solving for p, Initial residual = 0.0380341, Final residual = 0.00223239, No Iterations 2
time step continuity errors : sum local = 4.70405e-06, global = -7.68406e-07, cumulative = 6.2098e-06
smoothSolver:  Solving for omega, Initial residual = 0.000195456, Final residual = 1.47232e-05, No Iterations 1
smoothSolver:  Solving for k, Initial residual = 0.01494, Final residual = 0.0012364, No Iterations 1
ExecutionTime = 11.7 s  ClockTime = 12 s

forces forcesFish write:
    Sum of forces
        Total    : (0.057582 0.000862097 -0.000119249)
        Pressure : (0.0118699 0.00087366 -0.000130226)
        Viscous  : (0.0457121 -1.15633e-05 1.0977e-05)
    Sum of moments
        Total    : (1.91413e-06 8.61904e-06 0.000309191)
        Pressure : (1.87766e-06 8.26103e-06 0.000297998)
        Viscous  : (3.64636e-08 3.58007e-07 1.11929e-05)
    writing force and moment files.

Time = 21

smoothSolver:  Solving for Ux, Initial residual = 0.000152444, Final residual = 4.54619e-06, No Iterations 2
smoothSolver:  Solving for Uy, Initial residual = 0.0148867, Final residual = 0.000511621, No Iterations 2
smoothSolver:  Solving for Uz, Initial residual = 0.0114913, Final residual = 0.000480483, No Iterations 2
GAMG:  Solving for p, Initial residual = 0.0317073, Final residual = 0.00174796, No Iterations 2
time step continuity errors : sum local = 3.8987e-06, global = -9.33719e-07, cumulative = 5.27608e-06
smoothSolver:  Solving for omega, Initial residual = 0.000172594, Final residual = 1.301e-05, No Iterations 1
smoothSolver:  Solving for k, Initial residual = 0.013645, Final residual = 0.00113213, No Iterations 1
ExecutionTime = 12.18 s  ClockTime = 12 s

forces forcesFish write:
    Sum of forces
        Total    : (0.0548509 0.00111593 -0.00018423)
        Pressure : (0.00949193 0.00112888 -0.000194106)
        Viscous  : (0.045359 -1.2946e-05 9.87621e-06)
    Sum of moments
        Total    : (1.82463e-06 4.73557e-05 0.000287157)
        Pressure : (1.78806e-06 4.69436e-05 0.000276362)
        Viscous  : (3.65766e-08 4.12126e-07 1.0795e-05)
    writing force and moment files.

Time = 22

smoothSolver:  Solving for Ux, Initial residual = 0.000131913, Final residual = 4.07842e-06, No Iterations 2
smoothSolver:  Solving for Uy, Initial residual = 0.0136609, Final residual = 0.000522793, No Iterations 2
smoothSolver:  Solving for Uz, Initial residual = 0.0114607, Final residual = 0.000530483, No Iterations 2
GAMG:  Solving for p, Initial residual = 0.0286883, Final residual = 0.00159081, No Iterations 2
time step continuity errors : sum local = 3.64307e-06, global = -1.046e-06, cumulative = 4.23008e-06
smoothSolver:  Solving for omega, Initial residual = 0.000152674, Final residual = 1.15136e-05, No Iterations 1
smoothSolver:  Solving for k, Initial residual = 0.012486, Final residual = 0.00103797, No Iterations 1
ExecutionTime = 12.66 s  ClockTime = 12 s

forces forcesFish write:
    Sum of forces
        Total    : (0.0536724 0.00126158 -0.000226508)
        Pressure : (0.00864508 0.00127493 -0.000235548)
        Viscous  : (0.0450273 -1.33456e-05 9.03981e-06)
    Sum of moments
        Total    : (1.4186e-06 7.12428e-05 0.000282754)
        Pressure : (1.38419e-06 7.0777e-05 0.000272199)
        Viscous  : (3.44089e-08 4.65803e-07 1.05552e-05)
    writing force and moment files.

Time = 23

smoothSolver:  Solving for Ux, Initial residual = 0.000118895, Final residual = 3.66903e-06, No Iterations 2
smoothSolver:  Solving for Uy, Initial residual = 0.0126875, Final residual = 0.000484558, No Iterations 2
smoothSolver:  Solving for Uz, Initial residual = 0.0108642, Final residual = 0.000504109, No Iterations 2
GAMG:  Solving for p, Initial residual = 0.0277566, Final residual = 0.00147351, No Iterations 2
time step continuity errors : sum local = 3.3748e-06, global = -1.04151e-06, cumulative = 3.18857e-06
smoothSolver:  Solving for omega, Initial residual = 0.000135249, Final residual = 1.02038e-05, No Iterations 1
smoothSolver:  Solving for k, Initial residual = 0.0114546, Final residual = 0.000953463, No Iterations 1
ExecutionTime = 13.15 s  ClockTime = 13 s

forces forcesFish write:
    Sum of forces
        Total    : (0.0535547 0.00130174 -0.000235382)
        Pressure : (0.00884356 0.00131449 -0.000243953)
        Viscous  : (0.0447112 -1.27484e-05 8.57039e-06)
    Sum of moments
        Total    : (8.07509e-07 7.94338e-05 0.000286444)
        Pressure : (7.76631e-07 7.89277e-05 0.00027596)
        Viscous  : (3.08782e-08 5.06153e-07 1.04846e-05)
    writing force and moment files.

Time = 24

smoothSolver:  Solving for Ux, Initial residual = 0.000110002, Final residual = 3.29219e-06, No Iterations 2
smoothSolver:  Solving for Uy, Initial residual = 0.0119517, Final residual = 0.000417011, No Iterations 2
smoothSolver:  Solving for Uz, Initial residual = 0.00971717, Final residual = 0.00041623, No Iterations 2
GAMG:  Solving for p, Initial residual = 0.0268491, Final residual = 0.0013415, No Iterations 2
time step continuity errors : sum local = 3.01421e-06, global = -9.6084e-07, cumulative = 2.22773e-06
smoothSolver:  Solving for omega, Initial residual = 0.000119926, Final residual = 9.04723e-06, No Iterations 1
smoothSolver:  Solving for k, Initial residual = 0.0105201, Final residual = 0.000876267, No Iterations 1
ExecutionTime = 13.64 s  ClockTime = 13 s

forces forcesFish write:
    Sum of forces
        Total    : (0.054082 0.0012314 -0.000204779)
        Pressure : (0.00967529 0.0012427 -0.000213263)
        Viscous  : (0.0444067 -1.13006e-05 8.48358e-06)
    Sum of moments
        Total    : (1.07397e-07 7.15842e-05 0.000289575)
        Pressure : (8.03229e-08 7.10609e-05 0.000279007)
        Viscous  : (2.70739e-08 5.23342e-07 1.05686e-05)
    writing force and moment files.

Time = 25

smoothSolver:  Solving for Ux, Initial residual = 0.000106179, Final residual = 2.98783e-06, No Iterations 2
smoothSolver:  Solving for Uy, Initial residual = 0.0115234, Final residual = 0.000344726, No Iterations 2
smoothSolver:  Solving for Uz, Initial residual = 0.00836488, Final residual = 0.000300572, No Iterations 2
GAMG:  Solving for p, Initial residual = 0.0260542, Final residual = 0.00126632, No Iterations 2
time step continuity errors : sum local = 2.75296e-06, global = -8.1817e-07, cumulative = 1.40956e-06
smoothSolver:  Solving for omega, Initial residual = 0.000106391, Final residual = 8.0212e-06, No Iterations 1
smoothSolver:  Solving for k, Initial residual = 0.00967961, Final residual = 0.000806339, No Iterations 1
ExecutionTime = 14.15 s  ClockTime = 14 s

forces forcesFish write:
    Sum of forces
        Total    : (0.054852 0.00106974 -0.000141201)
        Pressure : (0.01074 0.00107903 -0.000149885)
        Viscous  : (0.044112 -9.2923e-06 8.68356e-06)
    Sum of moments
        Total    : (-5.40513e-07 5.07478e-05 0.000286998)
        Pressure : (-5.64109e-07 5.02351e-05 0.000276218)
        Viscous  : (2.35961e-08 5.12671e-07 1.07796e-05)
    writing force and moment files.

Time = 26

smoothSolver:  Solving for Ux, Initial residual = 0.000102919, Final residual = 2.72568e-06, No Iterations 2
smoothSolver:  Solving for Uy, Initial residual = 0.0114644, Final residual = 0.000309301, No Iterations 2
smoothSolver:  Solving for Uz, Initial residual = 0.00723269, Final residual = 0.000210137, No Iterations 2
GAMG:  Solving for p, Initial residual = 0.0246697, Final residual = 0.00116239, No Iterations 2
time step continuity errors : sum local = 2.43226e-06, global = -6.35829e-07, cumulative = 7.73731e-07
smoothSolver:  Solving for omega, Initial residual = 9.43833e-05, Final residual = 7.11043e-06, No Iterations 1
smoothSolver:  Solving for k, Initial residual = 0.00891004, Final residual = 0.000741883, No Iterations 1
ExecutionTime = 14.67 s  ClockTime = 14 s

forces forcesFish write:
    Sum of forces
        Total    : (0.0555403 0.000861412 -6.09176e-05)
        Pressure : (0.0117135 0.000868453 -6.99753e-05)
        Viscous  : (0.0438268 -7.04057e-06 9.05773e-06)
    Sum of moments
        Total    : (-1.02013e-06 2.33243e-05 0.000278168)
        Pressure : (-1.04097e-06 2.28411e-05 0.000267109)
        Viscous  : (2.08412e-08 4.83193e-07 1.10593e-05)
    writing force and moment files.

Time = 27

smoothSolver:  Solving for Ux, Initial residual = 9.8966e-05, Final residual = 2.49407e-06, No Iterations 2
smoothSolver:  Solving for Uy, Initial residual = 0.0115327, Final residual = 0.000318653, No Iterations 2
smoothSolver:  Solving for Uz, Initial residual = 0.00648051, Final residual = 0.000176927, No Iterations 2
GAMG:  Solving for p, Initial residual = 0.0226106, Final residual = 0.00100616, No Iterations 2
time step continuity errors : sum local = 2.03629e-06, global = -4.42345e-07, cumulative = 3.31386e-07
smoothSolver:  Solving for omega, Initial residual = 8.36968e-05, Final residual = 6.3007e-06, No Iterations 1
smoothSolver:  Solving for k, Initial residual = 0.00821224, Final residual = 0.000683083, No Iterations 1
ExecutionTime = 15.18 s  ClockTime = 15 s

forces forcesFish write:
    Sum of forces
        Total    : (0.0559526 0.000659396 1.6985e-05)
        Pressure : (0.0124011 0.00066419 7.52827e-06)
        Viscous  : (0.0435515 -4.79448e-06 9.45669e-06)
    Sum of moments
        Total    : (-1.26813e-06 -3.44737e-06 0.000265934)
        Pressure : (-1.28698e-06 -3.89051e-06 0.000254567)
        Viscous  : (1.88505e-08 4.43132e-07 1.13669e-05)
    writing force and moment files.

Time = 28

smoothSolver:  Solving for Ux, Initial residual = 9.3288e-05, Final residual = 2.28918e-06, No Iterations 2
smoothSolver:  Solving for Uy, Initial residual = 0.0108279, Final residual = 0.000326252, No Iterations 2
smoothSolver:  Solving for Uz, Initial residual = 0.00591221, Final residual = 0.000174132, No Iterations 2
GAMG:  Solving for p, Initial residual = 0.0206203, Final residual = 0.000936652, No Iterations 2
time step continuity errors : sum local = 1.85701e-06, global = -2.33632e-07, cumulative = 9.7754e-08
smoothSolver:  Solving for omega, Initial residual = 7.41606e-05, Final residual = 5.57739e-06, No Iterations 1
smoothSolver:  Solving for k, Initial residual = 0.00756774, Final residual = 0.000628488, No Iterations 1
ExecutionTime = 15.67 s  ClockTime = 16 s

forces forcesFish write:
    Sum of forces
        Total    : (0.056026 0.000508183 7.74976e-05)
        Pressure : (0.0127393 0.000510924 6.76957e-05)
        Viscous  : (0.0432867 -2.74055e-06 9.80196e-06)
    Sum of moments
        Total    : (-1.27581e-06 -2.38464e-05 0.000254342)
        Pressure : (-1.29325e-06 -2.42473e-05 0.000242684)
        Viscous  : (1.74405e-08 4.00951e-07 1.16575e-05)
    writing force and moment files.

Time = 29

smoothSolver:  Solving for Ux, Initial residual = 8.69372e-05, Final residual = 2.11314e-06, No Iterations 2
smoothSolver:  Solving for Uy, Initial residual = 0.00883203, Final residual = 0.000281283, No Iterations 2
smoothSolver:  Solving for Uz, Initial residual = 0.00537571, Final residual = 0.000166626, No Iterations 2
GAMG:  Solving for p, Initial residual = 0.0189739, Final residual = 0.00103263, No Iterations 2
time step continuity errors : sum local = 2.03678e-06, global = -1.00142e-08, cumulative = 8.77398e-08
smoothSolver:  Solving for omega, Initial residual = 6.56217e-05, Final residual = 4.92935e-06, No Iterations 1
smoothSolver:  Solving for k, Initial residual = 0.00697854, Final residual = 0.000578327, No Iterations 1
ExecutionTime = 16.2 s  ClockTime = 16 s

forces forcesFish write:
    Sum of forces
        Total    : (0.0558166 0.000421664 0.000114372)
        Pressure : (0.0127836 0.000422589 0.000104322)
        Viscous  : (0.0430329 -9.24758e-07 1.00496e-05)
    Sum of moments
        Total    : (-1.09154e-06 -3.5889e-05 0.000245625)
        Pressure : (-1.10786e-06 -3.62504e-05 0.00023371)
        Viscous  : (1.63175e-08 3.61406e-07 1.19151e-05)
    writing force and moment files.

Time = 30

smoothSolver:  Solving for Ux, Initial residual = 8.15727e-05, Final residual = 1.97696e-06, No Iterations 2
smoothSolver:  Solving for Uy, Initial residual = 0.00718371, Final residual = 0.000224755, No Iterations 2
smoothSolver:  Solving for Uz, Initial residual = 0.00477833, Final residual = 0.000143039, No Iterations 2
GAMG:  Solving for p, Initial residual = 0.0174636, Final residual = 0.000953759, No Iterations 2
time step continuity errors : sum local = 1.89347e-06, global = 1.78282e-07, cumulative = 2.66022e-07
smoothSolver:  Solving for omega, Initial residual = 5.79624e-05, Final residual = 4.34962e-06, No Iterations 1
smoothSolver:  Solving for k, Initial residual = 0.00643149, Final residual = 0.000531556, No Iterations 1
ExecutionTime = 16.73 s  ClockTime = 17 s

forces forcesFish write:
    Sum of forces
        Total    : (0.0554236 0.000394268 0.00012631)
        Pressure : (0.012633 0.000393623 0.000116156)
        Viscous  : (0.0427906 6.44346e-07 1.01537e-05)
    Sum of moments
        Total    : (-7.80505e-07 -3.99579e-05 0.000240339)
        Pressure : (-7.9556e-07 -4.02893e-05 0.00022821)
        Viscous  : (1.50551e-08 3.31397e-07 1.21297e-05)
    writing force and moment files.

Time = 31

smoothSolver:  Solving for Ux, Initial residual = 7.70877e-05, Final residual = 1.86895e-06, No Iterations 2
smoothSolver:  Solving for Uy, Initial residual = 0.00600468, Final residual = 0.000166824, No Iterations 2
smoothSolver:  Solving for Uz, Initial residual = 0.00424058, Final residual = 0.000108745, No Iterations 2
GAMG:  Solving for p, Initial residual = 0.0158805, Final residual = 0.000829951, No Iterations 2
time step continuity errors : sum local = 1.67216e-06, global = 3.07861e-07, cumulative = 5.73883e-07
smoothSolver:  Solving for omega, Initial residual = 5.10883e-05, Final residual = 3.83164e-06, No Iterations 1
smoothSolver:  Solving for k, Initial residual = 0.00592647, Final residual = 0.000488199, No Iterations 1
ExecutionTime = 17.21 s  ClockTime = 17 s

forces forcesFish write:
    Sum of forces
        Total    : (0.0549319 0.000425361 0.00011239)
        Pressure : (0.012372 0.000423362 0.00010225)
        Viscous  : (0.0425598 1.99837e-06 1.01401e-05)
    Sum of moments
        Total    : (-4.01497e-07 -3.62084e-05 0.000239557)
        Pressure : (-4.15045e-07 -3.65187e-05 0.000227262)
        Viscous  : (1.35479e-08 3.10286e-07 1.22944e-05)
    writing force and moment files.

Time = 32

smoothSolver:  Solving for Ux, Initial residual = 7.24489e-05, Final residual = 1.75775e-06, No Iterations 2
smoothSolver:  Solving for Uy, Initial residual = 0.00520948, Final residual = 0.000115053, No Iterations 2
smoothSolver:  Solving for Uz, Initial residual = 0.00391246, Final residual = 8.48143e-05, No Iterations 2
GAMG:  Solving for p, Initial residual = 0.0142658, Final residual = 0.000732611, No Iterations 2
time step continuity errors : sum local = 1.50476e-06, global = 3.78919e-07, cumulative = 9.52802e-07
smoothSolver:  Solving for omega, Initial residual = 4.49133e-05, Final residual = 3.3686e-06, No Iterations 1
smoothSolver:  Solving for k, Initial residual = 0.00545534, Final residual = 0.000447616, No Iterations 1
ExecutionTime = 17.69 s  ClockTime = 18 s

forces forcesFish write:
    Sum of forces
        Total    : (0.0544193 0.000501283 7.83507e-05)
        Pressure : (0.0120788 0.00049808 6.83169e-05)
        Viscous  : (0.0423405 3.20289e-06 1.00338e-05)
    Sum of moments
        Total    : (-2.68137e-08 -2.6571e-05 0.000242726)
        Pressure : (-3.85029e-08 -2.68679e-05 0.000230307)
        Viscous  : (1.16891e-08 2.96859e-07 1.24192e-05)
    writing force and moment files.

Time = 33

smoothSolver:  Solving for Ux, Initial residual = 6.68732e-05, Final residual = 1.63808e-06, No Iterations 2
smoothSolver:  Solving for Uy, Initial residual = 0.00465298, Final residual = 8.32052e-05, No Iterations 2
smoothSolver:  Solving for Uz, Initial residual = 0.00373011, Final residual = 7.87996e-05, No Iterations 2
GAMG:  Solving for p, Initial residual = 0.012789, Final residual = 0.000651755, No Iterations 2
time step continuity errors : sum local = 1.36447e-06, global = 3.90138e-07, cumulative = 1.34294e-06
smoothSolver:  Solving for omega, Initial residual = 3.93657e-05, Final residual = 2.9546e-06, No Iterations 1
smoothSolver:  Solving for k, Initial residual = 0.00501571, Final residual = 0.000409641, No Iterations 1
ExecutionTime = 18.18 s  ClockTime = 18 s

forces forcesFish write:
    Sum of forces
        Total    : (0.0539426 0.000598006 3.48232e-05)
        Pressure : (0.0118108 0.000593699 2.49348e-05)
        Viscous  : (0.0421318 4.3067e-06 9.88835e-06)
    Sum of moments
        Total    : (2.78638e-07 -1.42845e-05 0.000247726)
        Pressure : (2.69051e-07 -1.4572e-05 0.000235215)
        Viscous  : (9.58697e-09 2.87493e-07 1.25108e-05)
    writing force and moment files.

Time = 34

smoothSolver:  Solving for Ux, Initial residual = 5.9865e-05, Final residual = 1.51407e-06, No Iterations 2
smoothSolver:  Solving for Uy, Initial residual = 0.00419869, Final residual = 7.15241e-05, No Iterations 2
smoothSolver:  Solving for Uz, Initial residual = 0.00355431, Final residual = 8.0834e-05, No Iterations 2
GAMG:  Solving for p, Initial residual = 0.0115994, Final residual = 0.000560038, No Iterations 2
time step continuity errors : sum local = 1.19013e-06, global = 3.49086e-07, cumulative = 1.69203e-06
smoothSolver:  Solving for omega, Initial residual = 3.43842e-05, Final residual = 2.58533e-06, No Iterations 1
smoothSolver:  Solving for k, Initial residual = 0.00460369, Final residual = 0.000373993, No Iterations 1
ExecutionTime = 18.67 s  ClockTime = 19 s

forces forcesFish write:
    Sum of forces
        Total    : (0.0535316 0.000689948 -7.02803e-06)
        Pressure : (0.0115988 0.000684595 -1.67938e-05)
        Viscous  : (0.0419328 5.35278e-06 9.76577e-06)
    Sum of moments
        Total    : (4.74429e-07 -2.64191e-06 0.000251917)
        Pressure : (4.67151e-07 -2.92015e-06 0.000239334)
        Viscous  : (7.27741e-09 2.7824e-07 1.25835e-05)
    writing force and moment files.

Time = 35

smoothSolver:  Solving for Ux, Initial residual = 5.22247e-05, Final residual = 1.39027e-06, No Iterations 2
smoothSolver:  Solving for Uy, Initial residual = 0.0037591, Final residual = 6.74836e-05, No Iterations 2
smoothSolver:  Solving for Uz, Initial residual = 0.0032939, Final residual = 8.04192e-05, No Iterations 2
GAMG:  Solving for p, Initial residual = 0.0106396, Final residual = 0.000490334, No Iterations 2
time step continuity errors : sum local = 1.05123e-06, global = 3.00566e-07, cumulative = 1.99259e-06
smoothSolver:  Solving for omega, Initial residual = 2.99168e-05, Final residual = 2.25667e-06, No Iterations 1
smoothSolver:  Solving for k, Initial residual = 0.00421513, Final residual = 0.000340376, No Iterations 1
ExecutionTime = 19.16 s  ClockTime = 19 s

forces forcesFish write:
    Sum of forces
        Total    : (0.0531928 0.000757197 -3.89897e-05)
        Pressure : (0.0114503 0.00075083 -4.86697e-05)
        Viscous  : (0.0417425 6.36736e-06 9.68009e-06)
    Sum of moments
        Total    : (5.49758e-07 5.99429e-06 0.000253112)
        Pressure : (5.44602e-07 5.7291e-06 0.000240466)
        Viscous  : (5.15579e-09 2.65185e-07 1.26459e-05)
    writing force and moment files.

Time = 36

smoothSolver:  Solving for Ux, Initial residual = 4.65148e-05, Final residual = 1.27734e-06, No Iterations 2
smoothSolver:  Solving for Uy, Initial residual = 0.0033206, Final residual = 6.3875e-05, No Iterations 2
smoothSolver:  Solving for Uz, Initial residual = 0.00296729, Final residual = 7.39903e-05, No Iterations 2
GAMG:  Solving for p, Initial residual = 0.00988586, Final residual = 0.000463993, No Iterations 2
time step continuity errors : sum local = 9.96951e-07, global = 2.76801e-07, cumulative = 2.26939e-06
smoothSolver:  Solving for omega, Initial residual = 2.59202e-05, Final residual = 1.96507e-06, No Iterations 1
smoothSolver:  Solving for k, Initial residual = 0.00384967, Final residual = 0.000308811, No Iterations 1
ExecutionTime = 19.65 s  ClockTime = 19 s

forces forcesFish write:
    Sum of forces
        Total    : (0.0529171 0.000789986 -5.64989e-05)
        Pressure : (0.0113567 0.000782632 -6.61416e-05)
        Viscous  : (0.0415605 7.35401e-06 9.6427e-06)
    Sum of moments
        Total    : (5.1582e-07 1.05064e-05 0.000250179)
        Pressure : (5.1262e-07 1.02593e-05 0.000237482)
        Viscous  : (3.19994e-09 2.47152e-07 1.2697e-05)
    writing force and moment files.

Time = 37

smoothSolver:  Solving for Ux, Initial residual = 4.32479e-05, Final residual = 1.18488e-06, No Iterations 2
smoothSolver:  Solving for Uy, Initial residual = 0.00294776, Final residual = 5.96082e-05, No Iterations 2
smoothSolver:  Solving for Uz, Initial residual = 0.00264465, Final residual = 6.19172e-05, No Iterations 2
GAMG:  Solving for p, Initial residual = 0.0092748, Final residual = 0.000440745, No Iterations 2
time step continuity errors : sum local = 9.43739e-07, global = 2.2788e-07, cumulative = 2.49727e-06
smoothSolver:  Solving for omega, Initial residual = 2.23554e-05, Final residual = 1.70728e-06, No Iterations 1
smoothSolver:  Solving for k, Initial residual = 0.00350229, Final residual = 0.000278949, No Iterations 1
ExecutionTime = 20.14 s  ClockTime = 20 s

forces forcesFish write:
    Sum of forces
        Total    : (0.0526858 0.000788195 -5.88216e-05)
        Pressure : (0.0113 0.000779916 -6.84818e-05)
        Viscous  : (0.0413859 8.27922e-06 9.6602e-06)
    Sum of moments
        Total    : (3.99863e-07 1.09247e-05 0.000243064)
        Pressure : (3.98329e-07 1.06986e-05 0.000230323)
        Viscous  : (1.53349e-09 2.26196e-07 1.27411e-05)
    writing force and moment files.

Time = 38

smoothSolver:  Solving for Ux, Initial residual = 4.09614e-05, Final residual = 1.10647e-06, No Iterations 2
smoothSolver:  Solving for Uy, Initial residual = 0.00266281, Final residual = 5.60858e-05, No Iterations 2
smoothSolver:  Solving for Uz, Initial residual = 0.0023518, Final residual = 4.80674e-05, No Iterations 2
GAMG:  Solving for p, Initial residual = 0.0086805, Final residual = 0.000419996, No Iterations 2
time step continuity errors : sum local = 8.93149e-07, global = 1.61606e-07, cumulative = 2.65888e-06
smoothSolver:  Solving for omega, Initial residual = 1.9189e-05, Final residual = 1.48051e-06, No Iterations 1
smoothSolver:  Solving for k, Initial residual = 0.00317421, Final residual = 0.000250942, No Iterations 1
ExecutionTime = 20.62 s  ClockTime = 20 s

forces forcesFish write:
    Sum of forces
        Total    : (0.0524817 0.000756744 -4.81598e-05)
        Pressure : (0.0112634 0.000747606 -5.78792e-05)
        Viscous  : (0.0412183 9.13801e-06 9.71949e-06)
    Sum of moments
        Total    : (2.36526e-07 7.99996e-06 0.000232476)
        Pressure : (2.36343e-07 7.79695e-06 0.0002197)
        Viscous  : (1.83262e-10 2.03004e-07 1.27765e-05)
    writing force and moment files.

Time = 39

smoothSolver:  Solving for Ux, Initial residual = 3.87181e-05, Final residual = 1.03614e-06, No Iterations 2
smoothSolver:  Solving for Uy, Initial residual = 0.00246886, Final residual = 5.30695e-05, No Iterations 2
smoothSolver:  Solving for Uz, Initial residual = 0.00211292, Final residual = 3.79602e-05, No Iterations 2
GAMG:  Solving for p, Initial residual = 0.00809683, Final residual = 0.000415656, No Iterations 2
time step continuity errors : sum local = 8.76774e-07, global = 9.72858e-08, cumulative = 2.75617e-06
smoothSolver:  Solving for omega, Initial residual = 1.63914e-05, Final residual = 1.28256e-06, No Iterations 1
smoothSolver:  Solving for k, Initial residual = 0.00286348, Final residual = 0.000224682, No Iterations 1
ExecutionTime = 21.11 s  ClockTime = 21 s

forces forcesFish write:
    Sum of forces
        Total    : (0.0522926 0.000704983 -2.91678e-05)
        Pressure : (0.0112353 0.000695075 -3.89516e-05)
        Viscous  : (0.0410573 9.90862e-06 9.78387e-06)
    Sum of moments
        Total    : (6.29958e-08 3.04981e-06 0.000219854)
        Pressure : (6.38888e-08 2.87236e-06 0.000207051)
        Viscous  : (-8.92971e-10 1.7745e-07 1.28035e-05)
    writing force and moment files.

Time = 40

smoothSolver:  Solving for Ux, Initial residual = 3.6126e-05, Final residual = 9.69687e-07, No Iterations 2
smoothSolver:  Solving for Uy, Initial residual = 0.0022968, Final residual = 5.016e-05, No Iterations 2
smoothSolver:  Solving for Uz, Initial residual = 0.00193205, Final residual = 0.000188928, No Iterations 1
GAMG:  Solving for p, Initial residual = 0.00753086, Final residual = 0.000402788, No Iterations 2
time step continuity errors : sum local = 8.43291e-07, global = 4.513e-08, cumulative = 2.8013e-06
smoothSolver:  Solving for omega, Initial residual = 1.39351e-05, Final residual = 1.11096e-06, No Iterations 1
smoothSolver:  Solving for k, Initial residual = 0.00256936, Final residual = 0.000200149, No Iterations 1
ExecutionTime = 21.57 s  ClockTime = 21 s

forces forcesFish write:
    Sum of forces
        Total    : (0.0521078 0.00064524 -7.4656e-06)
        Pressure : (0.0112051 0.00063466 -1.73091e-05)
        Viscous  : (0.0409027 1.05806e-05 9.84353e-06)
    Sum of moments
        Total    : (-8.82553e-08 -2.37726e-06 0.000206978)
        Pressure : (-8.65465e-08 -2.53392e-06 0.000194158)
        Viscous  : (-1.70877e-09 1.56654e-07 1.28206e-05)
    writing force and moment files.

Time = 41

smoothSolver:  Solving for Ux, Initial residual = 3.33561e-05, Final residual = 9.06154e-07, No Iterations 2
smoothSolver:  Solving for Uy, Initial residual = 0.00212311, Final residual = 4.72528e-05, No Iterations 2
smoothSolver:  Solving for Uz, Initial residual = 0.00183, Final residual = 3.3681e-05, No Iterations 2
GAMG:  Solving for p, Initial residual = 0.00709166, Final residual = 0.000376492, No Iterations 2
time step continuity errors : sum local = 7.83665e-07, global = 8.27683e-09, cumulative = 2.80957e-06
smoothSolver:  Solving for omega, Initial residual = 1.17943e-05, Final residual = 9.63237e-07, No Iterations 1
smoothSolver:  Solving for k, Initial residual = 0.00229282, Final residual = 0.000177438, No Iterations 1
ExecutionTime = 22.06 s  ClockTime = 22 s

forces forcesFish write:
    Sum of forces
        Total    : (0.0519296 0.000587608 1.16021e-05)
        Pressure : (0.0111753 0.000576445 1.6955e-06)
        Viscous  : (0.0407543 1.11634e-05 9.90659e-06)
    Sum of moments
        Total    : (-1.95746e-07 -6.97698e-06 0.000195436)
        Pressure : (-1.93296e-07 -7.10979e-06 0.00018261)
        Viscous  : (-2.45018e-09 1.32812e-07 1.28257e-05)
    writing force and moment files.

Time = 42

smoothSolver:  Solving for Ux, Initial residual = 3.08351e-05, Final residual = 8.48648e-07, No Iterations 2
smoothSolver:  Solving for Uy, Initial residual = 0.00195194, Final residual = 4.38491e-05, No Iterations 2
smoothSolver:  Solving for Uz, Initial residual = 0.00171291, Final residual = 3.43115e-05, No Iterations 2
GAMG:  Solving for p, Initial residual = 0.00668571, Final residual = 0.000341338, No Iterations 2
time step continuity errors : sum local = 7.08353e-07, global = -2.57588e-08, cumulative = 2.78381e-06
smoothSolver:  Solving for omega, Initial residual = 9.94252e-06, Final residual = 8.36854e-07, No Iterations 1
smoothSolver:  Solving for k, Initial residual = 0.00203315, Final residual = 0.000156494, No Iterations 1
ExecutionTime = 22.54 s  ClockTime = 22 s

forces forcesFish write:
    Sum of forces
        Total    : (0.0517575 0.000540091 2.44445e-05)
        Pressure : (0.0111455 0.000528429 1.4492e-05)
        Viscous  : (0.040612 1.16617e-05 9.95244e-06)
    Sum of moments
        Total    : (-2.51332e-07 -9.89289e-06 0.000186288)
        Pressure : (-2.48224e-07 -1.00049e-05 0.000173472)
        Viscous  : (-3.10793e-09 1.12039e-07 1.28161e-05)
    writing force and moment files.

Time = 43

smoothSolver:  Solving for Ux, Initial residual = 2.86941e-05, Final residual = 7.99862e-07, No Iterations 2
smoothSolver:  Solving for Uy, Initial residual = 0.00178481, Final residual = 3.97325e-05, No Iterations 2
smoothSolver:  Solving for Uz, Initial residual = 0.00161544, Final residual = 3.31981e-05, No Iterations 2
GAMG:  Solving for p, Initial residual = 0.00627429, Final residual = 0.00030959, No Iterations 2
time step continuity errors : sum local = 6.42261e-07, global = -6.04061e-08, cumulative = 2.72341e-06
smoothSolver:  Solving for omega, Initial residual = 8.35462e-06, Final residual = 7.29481e-07, No Iterations 1
smoothSolver:  Solving for k, Initial residual = 0.00179122, Final residual = 0.000137359, No Iterations 1
ExecutionTime = 23.03 s  ClockTime = 23 s

forces forcesFish write:
    Sum of forces
        Total    : (0.0515914 0.000506873 2.94423e-05)
        Pressure : (0.0111157 0.000494779 1.94615e-05)
        Viscous  : (0.0404757 1.20946e-05 9.9808e-06)
    Sum of moments
        Total    : (-2.58101e-07 -1.08052e-05 0.000179961)
        Pressure : (-2.54444e-07 -1.09003e-05 0.000167168)
        Viscous  : (-3.65725e-09 9.50724e-08 1.27928e-05)
    writing force and moment files.

Time = 44

smoothSolver:  Solving for Ux, Initial residual = 2.74585e-05, Final residual = 7.63446e-07, No Iterations 2
smoothSolver:  Solving for Uy, Initial residual = 0.00162176, Final residual = 3.47545e-05, No Iterations 2
smoothSolver:  Solving for Uz, Initial residual = 0.001542, Final residual = 3.09001e-05, No Iterations 2
GAMG:  Solving for p, Initial residual = 0.00588985, Final residual = 0.000279144, No Iterations 2
time step continuity errors : sum local = 5.80085e-07, global = -9.01485e-08, cumulative = 2.63326e-06
smoothSolver:  Solving for omega, Initial residual = 7.00528e-06, Final residual = 6.38873e-07, No Iterations 1
smoothSolver:  Solving for k, Initial residual = 0.00156783, Final residual = 0.00012005, No Iterations 1
ExecutionTime = 23.51 s  ClockTime = 23 s

forces forcesFish write:
    Sum of forces
        Total    : (0.0514314 0.000488116 2.68594e-05)
        Pressure : (0.0110864 0.00047564 1.68719e-05)
        Viscous  : (0.040345 1.24756e-05 9.98752e-06)
    Sum of moments
        Total    : (-2.27653e-07 -9.87467e-06 0.000176232)
        Pressure : (-2.23422e-07 -9.95711e-06 0.000163475)
        Viscous  : (-4.23053e-09 8.24463e-08 1.27563e-05)
    writing force and moment files.

Time = 45

smoothSolver:  Solving for Ux, Initial residual = 2.70526e-05, Final residual = 7.35188e-07, No Iterations 2
smoothSolver:  Solving for Uy, Initial residual = 0.001471, Final residual = 2.95366e-05, No Iterations 2
smoothSolver:  Solving for Uz, Initial residual = 0.00148203, Final residual = 2.86332e-05, No Iterations 2
GAMG:  Solving for p, Initial residual = 0.00553433, Final residual = 0.000248418, No Iterations 2
time step continuity errors : sum local = 5.1767e-07, global = -1.05711e-07, cumulative = 2.52755e-06
smoothSolver:  Solving for omega, Initial residual = 5.87005e-06, Final residual = 5.62815e-07, No Iterations 1
smoothSolver:  Solving for k, Initial residual = 0.00136287, Final residual = 0.000104494, No Iterations 1
ExecutionTime = 24.01 s  ClockTime = 24 s

forces forcesFish write:
    Sum of forces
        Total    : (0.0512775 0.00048127 1.83153e-05)
        Pressure : (0.0110577 0.000468449 8.33916e-06)
        Viscous  : (0.0402198 1.28207e-05 9.97614e-06)
    Sum of moments
        Total    : (-1.75218e-07 -7.576e-06 0.000174479)
        Pressure : (-1.70346e-07 -7.64641e-06 0.000161772)
        Viscous  : (-4.87218e-09 7.04051e-08 1.27071e-05)
    writing force and moment files.

Time = 46

smoothSolver:  Solving for Ux, Initial residual = 2.67533e-05, Final residual = 7.09333e-07, No Iterations 2
smoothSolver:  Solving for Uy, Initial residual = 0.00135419, Final residual = 2.50732e-05, No Iterations 2
smoothSolver:  Solving for Uz, Initial residual = 0.00141236, Final residual = 2.61752e-05, No Iterations 2
GAMG:  Solving for p, Initial residual = 0.00521337, Final residual = 0.00022389, No Iterations 2
time step continuity errors : sum local = 4.67932e-07, global = -1.14804e-07, cumulative = 2.41274e-06
smoothSolver:  Solving for omega, Initial residual = 4.92396e-06, Final residual = 8.60641e-08, No Iterations 2
smoothSolver:  Solving for k, Initial residual = 0.0011763, Final residual = 9.06014e-05, No Iterations 1
ExecutionTime = 24.48 s  ClockTime = 24 s

forces forcesFish write:
    Sum of forces
        Total    : (0.0511298 0.000482532 6.13718e-06)
        Pressure : (0.0110298 0.000469396 -3.82047e-06)
        Viscous  : (0.0401 1.31362e-05 9.95765e-06)
    Sum of moments
        Total    : (-1.15782e-07 -4.51524e-06 0.000173931)
        Pressure : (-1.10232e-07 -4.57354e-06 0.000161286)
        Viscous  : (-5.54979e-09 5.8303e-08 1.26449e-05)
    writing force and moment files.

Time = 47

smoothSolver:  Solving for Ux, Initial residual = 2.62258e-05, Final residual = 6.82357e-07, No Iterations 2
smoothSolver:  Solving for Uy, Initial residual = 0.00125635, Final residual = 0.000123745, No Iterations 1
smoothSolver:  Solving for Uz, Initial residual = 0.00132608, Final residual = 2.3359e-05, No Iterations 2
GAMG:  Solving for p, Initial residual = 0.0049124, Final residual = 0.000209943, No Iterations 2
time step continuity errors : sum local = 4.39812e-07, global = -1.08226e-07, cumulative = 2.30452e-06
smoothSolver:  Solving for omega, Initial residual = 4.06216e-06, Final residual = 7.88871e-08, No Iterations 2
smoothSolver:  Solving for k, Initial residual = 0.00100889, Final residual = 7.83721e-05, No Iterations 1
ExecutionTime = 24.98 s  ClockTime = 25 s

forces forcesFish write:
    Sum of forces
        Total    : (0.0509862 0.000486903 -7.6003e-06)
        Pressure : (0.0110009 0.000473533 -1.75436e-05)
        Viscous  : (0.0399853 1.33701e-05 9.94328e-06)
    Sum of moments
        Total    : (-6.07752e-08 -1.19685e-06 0.000173525)
        Pressure : (-5.46171e-08 -1.2423e-06 0.000160969)
        Viscous  : (-6.15809e-09 4.54533e-08 1.25559e-05)
    writing force and moment files.

Time = 48

smoothSolver:  Solving for Ux, Initial residual = 2.53373e-05, Final residual = 6.53646e-07, No Iterations 2
smoothSolver:  Solving for Uy, Initial residual = 0.00118074, Final residual = 0.000115159, No Iterations 1
smoothSolver:  Solving for Uz, Initial residual = 0.00122798, Final residual = 0.00012103, No Iterations 1
GAMG:  Solving for p, Initial residual = 0.00462434, Final residual = 0.000201104, No Iterations 2
time step continuity errors : sum local = 4.21658e-07, global = -8.58697e-08, cumulative = 2.21865e-06
smoothSolver:  Solving for omega, Initial residual = 3.37134e-06, Final residual = 7.20762e-08, No Iterations 2
smoothSolver:  Solving for k, Initial residual = 0.000860103, Final residual = 6.76769e-05, No Iterations 1
ExecutionTime = 25.47 s  ClockTime = 25 s

forces forcesFish write:
    Sum of forces
        Total    : (0.0508456 0.000490875 -2.06779e-05)
        Pressure : (0.0109701 0.000477295 -3.06136e-05)
        Viscous  : (0.0398755 1.35798e-05 9.93564e-06)
    Sum of moments
        Total    : (-1.60051e-08 1.8605e-06 0.000172677)
        Pressure : (-9.30251e-09 1.82712e-06 0.000160215)
        Viscous  : (-6.7026e-09 3.33752e-08 1.24622e-05)
    writing force and moment files.

Time = 49

smoothSolver:  Solving for Ux, Initial residual = 2.42157e-05, Final residual = 6.23525e-07, No Iterations 2
smoothSolver:  Solving for Uy, Initial residual = 0.00110126, Final residual = 0.000107576, No Iterations 1
smoothSolver:  Solving for Uz, Initial residual = 0.00114591, Final residual = 0.000111769, No Iterations 1
GAMG:  Solving for p, Initial residual = 0.00436622, Final residual = 0.00018607, No Iterations 2
time step continuity errors : sum local = 3.897e-07, global = -6.96255e-08, cumulative = 2.14902e-06
smoothSolver:  Solving for omega, Initial residual = 2.81952e-06, Final residual = 6.60695e-08, No Iterations 2
smoothSolver:  Solving for k, Initial residual = 0.000729, Final residual = 5.8374e-05, No Iterations 1
ExecutionTime = 25.98 s  ClockTime = 26 s

forces forcesFish write:
    Sum of forces
        Total    : (0.0507096 0.000492154 -3.09222e-05)
        Pressure : (0.0109395 0.000478384 -4.08541e-05)
        Viscous  : (0.0397701 1.37702e-05 9.93194e-06)
    Sum of moments
        Total    : (1.04931e-08 4.14682e-06 0.000171168)
        Pressure : (1.77352e-08 4.1263e-06 0.000158802)
        Viscous  : (-7.24214e-09 2.05185e-08 1.2366e-05)
    writing force and moment files.

Time = 50

smoothSolver:  Solving for Ux, Initial residual = 2.32641e-05, Final residual = 5.95269e-07, No Iterations 2
smoothSolver:  Solving for Uy, Initial residual = 0.00101758, Final residual = 0.000100204, No Iterations 1
smoothSolver:  Solving for Uz, Initial residual = 0.00106144, Final residual = 0.000102464, No Iterations 1
GAMG:  Solving for p, Initial residual = 0.0041181, Final residual = 0.000168332, No Iterations 2
time step continuity errors : sum local = 3.51748e-07, global = -6.19758e-08, cumulative = 2.08705e-06
smoothSolver:  Solving for omega, Initial residual = 2.38092e-06, Final residual = 6.08235e-08, No Iterations 2
smoothSolver:  Solving for k, Initial residual = 0.000614907, Final residual = 5.03539e-05, No Iterations 1
ExecutionTime = 26.47 s  ClockTime = 26 s

forces forcesFish write:
    Sum of forces
        Total    : (0.0505801 0.000489499 -3.72342e-05)
        Pressure : (0.0109111 0.000475562 -4.71679e-05)
        Viscous  : (0.039669 1.39378e-05 9.9337e-06)
    Sum of moments
        Total    : (1.60292e-08 5.43842e-06 0.000168976)
        Pressure : (2.37843e-08 5.43058e-06 0.000156711)
        Viscous  : (-7.75507e-09 7.84788e-09 1.22643e-05)
    writing force and moment files.

Time = 51

smoothSolver:  Solving for Ux, Initial residual = 2.2544e-05, Final residual = 5.70094e-07, No Iterations 2
smoothSolver:  Solving for Uy, Initial residual = 0.00092757, Final residual = 9.21645e-05, No Iterations 1
smoothSolver:  Solving for Uz, Initial residual = 0.000978365, Final residual = 9.36169e-05, No Iterations 1
GAMG:  Solving for p, Initial residual = 0.00388047, Final residual = 0.000158826, No Iterations 2
time step continuity errors : sum local = 3.31197e-07, global = -4.64216e-08, cumulative = 2.04062e-06
smoothSolver:  Solving for omega, Initial residual = 2.0334e-06, Final residual = 5.61831e-08, No Iterations 2
smoothSolver:  Solving for k, Initial residual = 0.000516585, Final residual = 4.34768e-05, No Iterations 1
ExecutionTime = 26.95 s  ClockTime = 27 s

forces forcesFish write:
    Sum of forces
        Total    : (0.050458 0.000483283 -3.98643e-05)
        Pressure : (0.010886 0.000469209 -4.98064e-05)
        Viscous  : (0.0395719 1.40741e-05 9.94211e-06)
    Sum of moments
        Total    : (4.79923e-09 5.85297e-06 0.000166303)
        Pressure : (1.3017e-08 5.85826e-06 0.000154146)
        Viscous  : (-8.21781e-09 -5.28996e-09 1.2157e-05)
    writing force and moment files.

Time = 52

smoothSolver:  Solving for Ux, Initial residual = 2.18814e-05, Final residual = 5.46668e-07, No Iterations 2
smoothSolver:  Solving for Uy, Initial residual = 0.000840521, Final residual = 1.52608e-05, No Iterations 2
smoothSolver:  Solving for Uz, Initial residual = 0.000899936, Final residual = 8.58731e-05, No Iterations 1
GAMG:  Solving for p, Initial residual = 0.00365547, Final residual = 0.000154201, No Iterations 2
time step continuity errors : sum local = 3.21114e-07, global = -2.13207e-08, cumulative = 2.0193e-06
smoothSolver:  Solving for omega, Initial residual = 1.75801e-06, Final residual = 5.19974e-08, No Iterations 2
smoothSolver:  Solving for k, Initial residual = 0.000432624, Final residual = 3.76038e-05, No Iterations 1
ExecutionTime = 27.43 s  ClockTime = 27 s

forces forcesFish write:
    Sum of forces
        Total    : (0.0503451 0.000475079 -3.92805e-05)
        Pressure : (0.0108663 0.000460871 -4.92377e-05)
        Viscous  : (0.0394788 1.42071e-05 9.95725e-06)
    Sum of moments
        Total    : (-1.80413e-08 5.5558e-06 0.000163626)
        Pressure : (-9.37981e-09 5.57527e-06 0.000151573)
        Viscous  : (-8.66144e-09 -1.94636e-08 1.2053e-05)
    writing force and moment files.

Time = 53

smoothSolver:  Solving for Ux, Initial residual = 2.12763e-05, Final residual = 5.24907e-07, No Iterations 2
smoothSolver:  Solving for Uy, Initial residual = 0.000757996, Final residual = 1.39871e-05, No Iterations 2
smoothSolver:  Solving for Uz, Initial residual = 0.000831777, Final residual = 7.96748e-05, No Iterations 1
GAMG:  Solving for p, Initial residual = 0.00344127, Final residual = 0.000144475, No Iterations 2
time step continuity errors : sum local = 3.00683e-07, global = 8.28565e-09, cumulative = 2.02759e-06
smoothSolver:  Solving for omega, Initial residual = 1.53917e-06, Final residual = 4.81803e-08, No Iterations 2
smoothSolver:  Solving for k, Initial residual = 0.000361472, Final residual = 3.25966e-05, No Iterations 1
ExecutionTime = 27.91 s  ClockTime = 28 s

forces forcesFish write:
    Sum of forces
        Total    : (0.0502394 0.000465686 -3.67753e-05)
        Pressure : (0.01085 0.000451388 -4.67479e-05)
        Viscous  : (0.0393894 1.42982e-05 9.97266e-06)
    Sum of moments
        Total    : (-4.57394e-08 4.88575e-06 0.000161002)
        Pressure : (-3.66548e-08 4.91848e-06 0.000149063)
        Viscous  : (-9.08462e-09 -3.27313e-08 1.19391e-05)
    writing force and moment files.

Time = 54

smoothSolver:  Solving for Ux, Initial residual = 2.06586e-05, Final residual = 5.0465e-07, No Iterations 2
smoothSolver:  Solving for Uy, Initial residual = 0.000708293, Final residual = 7.03365e-05, No Iterations 1
smoothSolver:  Solving for Uz, Initial residual = 0.000774881, Final residual = 7.49366e-05, No Iterations 1
GAMG:  Solving for p, Initial residual = 0.0032325, Final residual = 0.000131152, No Iterations 2
time step continuity errors : sum local = 2.72932e-07, global = 3.8365e-08, cumulative = 2.06595e-06
smoothSolver:  Solving for omega, Initial residual = 1.36435e-06, Final residual = 4.46684e-08, No Iterations 2
smoothSolver:  Solving for k, Initial residual = 0.00030177, Final residual = 2.8345e-05, No Iterations 1
ExecutionTime = 28.4 s  ClockTime = 28 s

forces forcesFish write:
    Sum of forces
        Total    : (0.0501367 0.000455373 -3.38753e-05)
        Pressure : (0.0108333 0.00044105 -4.38578e-05)
        Viscous  : (0.0393035 1.43233e-05 9.98255e-06)
    Sum of moments
        Total    : (-7.2095e-08 4.21021e-06 0.00015828)
        Pressure : (-6.26542e-08 4.25427e-06 0.00014647)
        Viscous  : (-9.44081e-09 -4.40596e-08 1.18098e-05)
    writing force and moment files.

Time = 55

smoothSolver:  Solving for Ux, Initial residual = 1.99348e-05, Final residual = 4.8506e-07, No Iterations 2
smoothSolver:  Solving for Uy, Initial residual = 0.00068166, Final residual = 6.7661e-05, No Iterations 1
smoothSolver:  Solving for Uz, Initial residual = 0.000727478, Final residual = 7.13619e-05, No Iterations 1
GAMG:  Solving for p, Initial residual = 0.00304389, Final residual = 0.000116598, No Iterations 2
time step continuity errors : sum local = 2.42656e-07, global = 6.19817e-08, cumulative = 2.12794e-06
smoothSolver:  Solving for omega, Initial residual = 1.22355e-06, Final residual = 4.1422e-08, No Iterations 2
smoothSolver:  Solving for k, Initial residual = 0.000252044, Final residual = 2.47382e-05, No Iterations 1
ExecutionTime = 28.88 s  ClockTime = 29 s

forces forcesFish write:
    Sum of forces
        Total    : (0.0500368 0.000445042 -3.14038e-05)
        Pressure : (0.0108158 0.00043073 -4.13938e-05)
        Viscous  : (0.0392209 1.43123e-05 9.99004e-06)
    Sum of moments
        Total    : (-9.40303e-08 3.7197e-06 0.000155639)
        Pressure : (-8.42309e-08 3.77397e-06 0.000143963)
        Viscous  : (-9.79945e-09 -5.42689e-08 1.16756e-05)
    writing force and moment files.

Time = 56

smoothSolver:  Solving for Ux, Initial residual = 1.89597e-05, Final residual = 4.65335e-07, No Iterations 2
smoothSolver:  Solving for Uy, Initial residual = 0.000650786, Final residual = 6.50689e-05, No Iterations 1
smoothSolver:  Solving for Uz, Initial residual = 0.00068974, Final residual = 6.84759e-05, No Iterations 1
GAMG:  Solving for p, Initial residual = 0.00287968, Final residual = 0.000109128, No Iterations 2
time step continuity errors : sum local = 2.27172e-07, global = 6.4917e-08, cumulative = 2.19285e-06
smoothSolver:  Solving for omega, Initial residual = 1.10845e-06, Final residual = 3.83977e-08, No Iterations 2
smoothSolver:  Solving for k, Initial residual = 0.000210893, Final residual = 3.87099e-06, No Iterations 2
ExecutionTime = 29.41 s  ClockTime = 29 s

forces forcesFish write:
    Sum of forces
        Total    : (0.0499332 0.000435291 -2.99656e-05)
        Pressure : (0.0107975 0.000421037 -3.9963e-05)
        Viscous  : (0.0391357 1.42534e-05 9.99741e-06)
    Sum of moments
        Total    : (-1.09994e-07 3.54256e-06 0.00015319)
        Pressure : (-9.97739e-08 3.60745e-06 0.000141664)
        Viscous  : (-1.02203e-08 -6.48864e-08 1.15262e-05)
    writing force and moment files.

Time = 57

smoothSolver:  Solving for Ux, Initial residual = 1.74617e-05, Final residual = 4.47398e-07, No Iterations 2
smoothSolver:  Solving for Uy, Initial residual = 0.000617573, Final residual = 1.17226e-05, No Iterations 2
smoothSolver:  Solving for Uz, Initial residual = 0.000662144, Final residual = 1.22262e-05, No Iterations 2
GAMG:  Solving for p, Initial residual = 0.00274796, Final residual = 0.000111669, No Iterations 2
time step continuity errors : sum local = 2.32655e-07, global = 5.04306e-08, cumulative = 2.24328e-06
smoothSolver:  Solving for omega, Initial residual = 1.03482e-06, Final residual = 3.62812e-08, No Iterations 2
smoothSolver:  Solving for k, Initial residual = 0.000175059, Final residual = 3.45588e-06, No Iterations 2
ExecutionTime = 29.96 s  ClockTime = 30 s

forces forcesFish write:
    Sum of forces
        Total    : (0.0498352 0.000427777 -2.98386e-05)
        Pressure : (0.0107814 0.000413595 -3.98469e-05)
        Viscous  : (0.0390538 1.41822e-05 1.00082e-05)
    Sum of moments
        Total    : (-1.20163e-07 3.72768e-06 0.00015148)
        Pressure : (-1.09522e-07 3.80485e-06 0.000140104)
        Viscous  : (-1.06419e-08 -7.71714e-08 1.13761e-05)
    writing force and moment files.

Time = 58

smoothSolver:  Solving for Ux, Initial residual = 1.51652e-05, Final residual = 4.25235e-07, No Iterations 2
smoothSolver:  Solving for Uy, Initial residual = 0.000575069, Final residual = 1.08617e-05, No Iterations 2
smoothSolver:  Solving for Uz, Initial residual = 0.000626865, Final residual = 6.24777e-05, No Iterations 1
GAMG:  Solving for p, Initial residual = 0.00259927, Final residual = 0.000107549, No Iterations 2
time step continuity errors : sum local = 2.24462e-07, global = 4.09097e-08, cumulative = 2.28419e-06
smoothSolver:  Solving for omega, Initial residual = 9.65294e-07, Final residual = 3.40922e-08, No Iterations 2
smoothSolver:  Solving for k, Initial residual = 0.000145896, Final residual = 3.06673e-06, No Iterations 2
ExecutionTime = 30.48 s  ClockTime = 30 s

forces forcesFish write:
    Sum of forces
        Total    : (0.0497398 0.000422036 -3.13298e-05)
        Pressure : (0.0107646 0.000407943 -4.13442e-05)
        Viscous  : (0.0389752 1.40927e-05 1.00144e-05)
    Sum of moments
        Total    : (-1.23275e-07 4.30992e-06 0.000150235)
        Pressure : (-1.12253e-07 4.39789e-06 0.000139012)
        Viscous  : (-1.10223e-08 -8.79709e-08 1.12222e-05)
    writing force and moment files.

Time = 59

smoothSolver:  Solving for Ux, Initial residual = 1.28075e-05, Final residual = 4.01943e-07, No Iterations 2
smoothSolver:  Solving for Uy, Initial residual = 0.000530627, Final residual = 5.30487e-05, No Iterations 1
smoothSolver:  Solving for Uz, Initial residual = 0.00059765, Final residual = 5.94343e-05, No Iterations 1
GAMG:  Solving for p, Initial residual = 0.00245573, Final residual = 9.73793e-05, No Iterations 2
time step continuity errors : sum local = 2.03607e-07, global = 4.19065e-08, cumulative = 2.3261e-06
smoothSolver:  Solving for omega, Initial residual = 9.01642e-07, Final residual = 3.1898e-08, No Iterations 2
smoothSolver:  Solving for k, Initial residual = 0.00012225, Final residual = 2.71573e-06, No Iterations 2
ExecutionTime = 31.01 s  ClockTime = 31 s

forces forcesFish write:
    Sum of forces
        Total    : (0.0496452 0.000417281 -3.42398e-05)
        Pressure : (0.0107453 0.000403287 -4.42575e-05)
        Viscous  : (0.0388999 1.39935e-05 1.00177e-05)
    Sum of moments
        Total    : (-1.19942e-07 5.20752e-06 0.000149137)
        Pressure : (-1.08582e-07 5.30529e-06 0.000138067)
        Viscous  : (-1.13603e-08 -9.77727e-08 1.10694e-05)
    writing force and moment files.

Time = 60

smoothSolver:  Solving for Ux, Initial residual = 1.12889e-05, Final residual = 3.83163e-07, No Iterations 2
smoothSolver:  Solving for Uy, Initial residual = 0.000489589, Final residual = 9.35399e-06, No Iterations 2
smoothSolver:  Solving for Uz, Initial residual = 0.000563571, Final residual = 5.60994e-05, No Iterations 1
GAMG:  Solving for p, Initial residual = 0.00232608, Final residual = 9.13485e-05, No Iterations 2
time step continuity errors : sum local = 1.91201e-07, global = 3.86517e-08, cumulative = 2.36475e-06
smoothSolver:  Solving for omega, Initial residual = 8.4414e-07, Final residual = 2.97562e-08, No Iterations 2
smoothSolver:  Solving for k, Initial residual = 0.000103093, Final residual = 2.40218e-06, No Iterations 2
ExecutionTime = 31.51 s  ClockTime = 31 s

forces forcesFish write:
    Sum of forces
        Total    : (0.049554 0.000414071 -3.79439e-05)
        Pressure : (0.0107264 0.000400175 -4.79634e-05)
        Viscous  : (0.0388276 1.38957e-05 1.00194e-05)
    Sum of moments
        Total    : (-1.1324e-07 6.25502e-06 0.000148407)
        Pressure : (-1.01524e-07 6.36196e-06 0.000137489)
        Viscous  : (-1.17159e-08 -1.06942e-07 1.09178e-05)
    writing force and moment files.

Time = 61

smoothSolver:  Solving for Ux, Initial residual = 1.0687e-05, Final residual = 3.69284e-07, No Iterations 2
smoothSolver:  Solving for Uy, Initial residual = 0.000443409, Final residual = 8.60649e-06, No Iterations 2
smoothSolver:  Solving for Uz, Initial residual = 0.000528448, Final residual = 5.27222e-05, No Iterations 1
GAMG:  Solving for p, Initial residual = 0.00220387, Final residual = 8.72764e-05, No Iterations 2
time step continuity errors : sum local = 1.82761e-07, global = 2.5122e-08, cumulative = 2.38987e-06
smoothSolver:  Solving for omega, Initial residual = 7.91312e-07, Final residual = 2.7683e-08, No Iterations 2
smoothSolver:  Solving for k, Initial residual = 8.75481e-05, Final residual = 2.12255e-06, No Iterations 2
ExecutionTime = 32.05 s  ClockTime = 32 s

forces forcesFish write:
    Sum of forces
        Total    : (0.0494663 0.000411922 -4.20336e-05)
        Pressure : (0.0107078 0.000398118 -5.20575e-05)
        Viscous  : (0.0387585 1.38041e-05 1.00239e-05)
    Sum of moments
        Total    : (-1.05378e-07 7.34877e-06 0.000147924)
        Pressure : (-9.33389e-08 7.46567e-06 0.000137154)
        Viscous  : (-1.20391e-08 -1.16898e-07 1.07699e-05)
    writing force and moment files.

Time = 62

smoothSolver:  Solving for Ux, Initial residual = 1.0414e-05, Final residual = 3.56924e-07, No Iterations 2
smoothSolver:  Solving for Uy, Initial residual = 0.000407832, Final residual = 8.00426e-06, No Iterations 2
smoothSolver:  Solving for Uz, Initial residual = 0.000495187, Final residual = 9.08793e-06, No Iterations 2
GAMG:  Solving for p, Initial residual = 0.00209717, Final residual = 8.06301e-05, No Iterations 2
time step continuity errors : sum local = 1.68854e-07, global = 5.62315e-09, cumulative = 2.3955e-06
smoothSolver:  Solving for omega, Initial residual = 7.42376e-07, Final residual = 2.56812e-08, No Iterations 2
smoothSolver:  Solving for k, Initial residual = 7.48915e-05, Final residual = 1.8733e-06, No Iterations 2
ExecutionTime = 32.59 s  ClockTime = 32 s

forces forcesFish write:
    Sum of forces
        Total    : (0.0493838 0.000410868 -4.60998e-05)
        Pressure : (0.0106914 0.000397145 -5.61342e-05)
        Viscous  : (0.0386924 1.37228e-05 1.00343e-05)
    Sum of moments
        Total    : (-9.86047e-08 8.38971e-06 0.000147748)
        Pressure : (-8.62487e-08 8.51917e-06 0.000137121)
        Viscous  : (-1.23559e-08 -1.29466e-07 1.06273e-05)
    writing force and moment files.

Time = 63

smoothSolver:  Solving for Ux, Initial residual = 1.01581e-05, Final residual = 3.4454e-07, No Iterations 2
smoothSolver:  Solving for Uy, Initial residual = 0.000381372, Final residual = 7.52632e-06, No Iterations 2
smoothSolver:  Solving for Uz, Initial residual = 0.00045923, Final residual = 4.59012e-05, No Iterations 1
GAMG:  Solving for p, Initial residual = 0.0019919, Final residual = 7.17089e-05, No Iterations 2
time step continuity errors : sum local = 1.50167e-07, global = -1.55975e-08, cumulative = 2.3799e-06
smoothSolver:  Solving for omega, Initial residual = 6.96827e-07, Final residual = 2.37669e-08, No Iterations 2
smoothSolver:  Solving for k, Initial residual = 6.45235e-05, Final residual = 1.65095e-06, No Iterations 2
ExecutionTime = 33.07 s  ClockTime = 33 s

forces forcesFish write:
    Sum of forces
        Total    : (0.0493044 0.000410168 -5.00646e-05)
        Pressure : (0.0106751 0.000396519 -6.01102e-05)
        Viscous  : (0.0386293 1.36493e-05 1.00456e-05)
    Sum of moments
        Total    : (-9.2517e-08 9.37405e-06 0.000147644)
        Pressure : (-7.98875e-08 9.51555e-06 0.000137154)
        Viscous  : (-1.26295e-08 -1.41499e-07 1.04893e-05)
    writing force and moment files.

Time = 64

[...]
    writing force and moment files.

Time = 131

smoothSolver:  Solving for Ux, Initial residual = 7.24231e-07, Final residual = 6.42881e-08, No Iterations 1
smoothSolver:  Solving for Uy, Initial residual = 1.88425e-05, Final residual = 3.75739e-07, No Iterations 2
smoothSolver:  Solving for Uz, Initial residual = 2.30901e-05, Final residual = 4.6937e-07, No Iterations 2
GAMG:  Solving for p, Initial residual = 8.68769e-05, Final residual = 4.26264e-06, No Iterations 2
time step continuity errors : sum local = 9.02771e-09, global = 4.25979e-09, cumulative = 2.24272e-06
smoothSolver:  Solving for omega, Initial residual = 1.05957e-08, Final residual = 1.78341e-09, No Iterations 1
smoothSolver:  Solving for k, Initial residual = 3.53366e-08, Final residual = 3.36336e-09, No Iterations 1
ExecutionTime = 68.7 s  ClockTime = 69 s

forces forcesFish write:
    Sum of forces
        Total    : (0.0481038 0.000419439 -9.29991e-05)
        Pressure : (0.0104982 0.000405241 -0.00010398)
        Viscous  : (0.0376056 1.41981e-05 1.09813e-05)
    Sum of moments
        Total    : (-7.77688e-08 2.07232e-05 0.000154332)
        Pressure : (-6.07629e-08 2.13075e-05 0.000145943)
        Viscous  : (-1.70059e-08 -5.84285e-07 8.38816e-06)
    writing force and moment files.

Time = 132

smoothSolver:  Solving for Ux, Initial residual = 6.43808e-07, Final residual = 5.79487e-08, No Iterations 1
smoothSolver:  Solving for Uy, Initial residual = 1.78371e-05, Final residual = 3.56214e-07, No Iterations 2
smoothSolver:  Solving for Uz, Initial residual = 2.19012e-05, Final residual = 4.45524e-07, No Iterations 2
GAMG:  Solving for p, Initial residual = 8.14663e-05, Final residual = 4.03741e-06, No Iterations 2
time step continuity errors : sum local = 8.55132e-09, global = 3.9176e-09, cumulative = 2.24663e-06
smoothSolver:  Solving for omega, Initial residual = 8.24451e-09, Final residual = 8.24451e-09, No Iterations 0
smoothSolver:  Solving for k, Initial residual = 3.35314e-08, Final residual = 3.18317e-09, No Iterations 1
ExecutionTime = 69.2 s  ClockTime = 69 s

forces forcesFish write:
    Sum of forces
        Total    : (0.0481029 0.000419606 -9.30507e-05)
        Pressure : (0.0104979 0.000405406 -0.000104033)
        Viscous  : (0.037605 1.42e-05 1.0982e-05)
    Sum of moments
        Total    : (-7.75927e-08 2.07406e-05 0.000154393)
        Pressure : (-6.05825e-08 2.13252e-05 0.000146007)
        Viscous  : (-1.70103e-08 -5.84677e-07 8.38684e-06)
    writing force and moment files.

Time = 133

smoothSolver:  Solving for Ux, Initial residual = 5.69685e-07, Final residual = 5.20535e-08, No Iterations 1
smoothSolver:  Solving for Uy, Initial residual = 1.68231e-05, Final residual = 3.35733e-07, No Iterations 2
smoothSolver:  Solving for Uz, Initial residual = 2.0688e-05, Final residual = 4.20175e-07, No Iterations 2
GAMG:  Solving for p, Initial residual = 7.63566e-05, Final residual = 3.72101e-06, No Iterations 2
time step continuity errors : sum local = 7.88169e-09, global = 3.4516e-09, cumulative = 2.25009e-06
smoothSolver:  Solving for omega, Initial residual = 9.26292e-09, Final residual = 9.26292e-09, No Iterations 0
smoothSolver:  Solving for k, Initial residual = 3.19421e-08, Final residual = 3.02509e-09, No Iterations 1
ExecutionTime = 69.7 s  ClockTime = 70 s

forces forcesFish write:
    Sum of forces
        Total    : (0.0481021 0.000419766 -9.30937e-05)
        Pressure : (0.0104977 0.000405564 -0.000104076)
        Viscous  : (0.0376044 1.42019e-05 1.09825e-05)
    Sum of moments
        Total    : (-7.74334e-08 2.07553e-05 0.000154453)
        Pressure : (-6.04192e-08 2.13403e-05 0.000146067)
        Viscous  : (-1.70142e-08 -5.85002e-07 8.38567e-06)
    writing force and moment files.

Time = 134

smoothSolver:  Solving for Ux, Initial residual = 5.06719e-07, Final residual = 4.69405e-08, No Iterations 1
smoothSolver:  Solving for Uy, Initial residual = 1.58241e-05, Final residual = 3.14631e-07, No Iterations 2
smoothSolver:  Solving for Uz, Initial residual = 1.94655e-05, Final residual = 3.93631e-07, No Iterations 2
GAMG:  Solving for p, Initial residual = 7.15447e-05, Final residual = 3.35066e-06, No Iterations 2
time step continuity errors : sum local = 7.09766e-09, global = 2.81322e-09, cumulative = 2.2529e-06
smoothSolver:  Solving for omega, Initial residual = 1.0227e-08, Final residual = 1.72495e-09, No Iterations 1
smoothSolver:  Solving for k, Initial residual = 2.98358e-08, Final residual = 2.7929e-09, No Iterations 1
ExecutionTime = 70.2 s  ClockTime = 70 s

forces forcesFish write:
    Sum of forces
        Total    : (0.0481014 0.000419918 -9.31304e-05)
        Pressure : (0.0104975 0.000405714 -0.000104113)
        Viscous  : (0.0376039 1.42039e-05 1.09828e-05)
    Sum of moments
        Total    : (-7.72787e-08 2.07681e-05 0.000154509)
        Pressure : (-6.02609e-08 2.13534e-05 0.000146125)
        Viscous  : (-1.70178e-08 -5.85269e-07 8.38462e-06)
    writing force and moment files.

Time = 135

smoothSolver:  Solving for Ux, Initial residual = 4.56891e-07, Final residual = 4.27798e-08, No Iterations 1
smoothSolver:  Solving for Uy, Initial residual = 1.48658e-05, Final residual = 2.93559e-07, No Iterations 2
smoothSolver:  Solving for Uz, Initial residual = 1.82693e-05, Final residual = 3.66684e-07, No Iterations 2
GAMG:  Solving for p, Initial residual = 6.70068e-05, Final residual = 2.94379e-06, No Iterations 2
time step continuity errors : sum local = 6.23609e-09, global = 2.00846e-09, cumulative = 2.25491e-06
smoothSolver:  Solving for omega, Initial residual = 7.84032e-09, Final residual = 7.84032e-09, No Iterations 0
smoothSolver:  Solving for k, Initial residual = 2.81881e-08, Final residual = 2.6327e-09, No Iterations 1
ExecutionTime = 70.73 s  ClockTime = 71 s

forces forcesFish write:
    Sum of forces
        Total    : (0.0481006 0.000420065 -9.31636e-05)
        Pressure : (0.0104973 0.000405859 -0.000104147)
        Viscous  : (0.0376033 1.42059e-05 1.09831e-05)
    Sum of moments
        Total    : (-7.71194e-08 2.07798e-05 0.000154563)
        Pressure : (-6.00981e-08 2.13653e-05 0.00014618)
        Viscous  : (-1.70212e-08 -5.85487e-07 8.38368e-06)
    writing force and moment files.

Time = 136

smoothSolver:  Solving for Ux, Initial residual = 4.17074e-07, Final residual = 3.93562e-08, No Iterations 1
smoothSolver:  Solving for Uy, Initial residual = 1.39722e-05, Final residual = 2.73854e-07, No Iterations 2
smoothSolver:  Solving for Uz, Initial residual = 1.71479e-05, Final residual = 3.41476e-07, No Iterations 2
GAMG:  Solving for p, Initial residual = 6.27708e-05, Final residual = 2.51208e-06, No Iterations 2
time step continuity errors : sum local = 5.32176e-09, global = 1.0912e-09, cumulative = 2.256e-06
smoothSolver:  Solving for omega, Initial residual = 8.68512e-09, Final residual = 8.68512e-09, No Iterations 0
smoothSolver:  Solving for k, Initial residual = 2.6776e-08, Final residual = 2.49787e-09, No Iterations 1
ExecutionTime = 71.36 s  ClockTime = 71 s

forces forcesFish write:
    Sum of forces
        Total    : (0.0481 0.000420205 -9.31948e-05)
        Pressure : (0.0104971 0.000405997 -0.000104178)
        Viscous  : (0.0376029 1.42079e-05 1.09832e-05)
    Sum of moments
        Total    : (-7.69509e-08 2.07909e-05 0.000154615)
        Pressure : (-5.99265e-08 2.13765e-05 0.000146232)
        Viscous  : (-1.70244e-08 -5.8566e-07 8.38282e-06)
    writing force and moment files.

Time = 137

smoothSolver:  Solving for Ux, Initial residual = 3.84609e-07, Final residual = 3.64834e-08, No Iterations 1
smoothSolver:  Solving for Uy, Initial residual = 1.31499e-05, Final residual = 2.558e-07, No Iterations 2
smoothSolver:  Solving for Uz, Initial residual = 1.61135e-05, Final residual = 3.18345e-07, No Iterations 2
GAMG:  Solving for p, Initial residual = 5.88339e-05, Final residual = 2.08302e-06, No Iterations 2
time step continuity errors : sum local = 4.41295e-09, global = 1.54247e-10, cumulative = 2.25615e-06
smoothSolver:  Solving for omega, Initial residual = 9.48584e-09, Final residual = 9.48584e-09, No Iterations 0
smoothSolver:  Solving for k, Initial residual = 2.54738e-08, Final residual = 2.37368e-09, No Iterations 1
ExecutionTime = 71.89 s  ClockTime = 72 s

forces forcesFish write:
    Sum of forces
        Total    : (0.0480993 0.00042034 -9.32248e-05)
        Pressure : (0.0104969 0.00040613 -0.000104208)
        Viscous  : (0.0376024 1.42098e-05 1.09833e-05)
    Sum of moments
        Total    : (-7.67742e-08 2.08015e-05 0.000154665)
        Pressure : (-5.97468e-08 2.13873e-05 0.000146283)
        Viscous  : (-1.70273e-08 -5.85796e-07 8.38204e-06)
    writing force and moment files.

Time = 138

smoothSolver:  Solving for Ux, Initial residual = 3.57927e-07, Final residual = 3.4051e-08, No Iterations 1
smoothSolver:  Solving for Uy, Initial residual = 1.23993e-05, Final residual = 2.3959e-07, No Iterations 2
smoothSolver:  Solving for Uz, Initial residual = 1.51741e-05, Final residual = 2.97635e-07, No Iterations 2
GAMG:  Solving for p, Initial residual = 5.52992e-05, Final residual = 1.75381e-06, No Iterations 2
time step continuity errors : sum local = 3.7156e-09, global = -7.81813e-10, cumulative = 2.25537e-06
smoothSolver:  Solving for omega, Initial residual = 1.02428e-08, Final residual = 1.70954e-09, No Iterations 1
smoothSolver:  Solving for k, Initial residual = 2.36392e-08, Final residual = 2.16801e-09, No Iterations 1
ExecutionTime = 72.44 s  ClockTime = 72 s

forces forcesFish write:
    Sum of forces
        Total    : (0.0480987 0.000420468 -9.32538e-05)
        Pressure : (0.0104967 0.000406256 -0.000104237)
        Viscous  : (0.037602 1.42117e-05 1.09833e-05)
    Sum of moments
        Total    : (-7.6593e-08 2.08117e-05 0.000154712)
        Pressure : (-5.95628e-08 2.13976e-05 0.000146331)
        Viscous  : (-1.70302e-08 -5.85898e-07 8.38133e-06)
    writing force and moment files.

Time = 139

smoothSolver:  Solving for Ux, Initial residual = 3.35784e-07, Final residual = 3.19738e-08, No Iterations 1
smoothSolver:  Solving for Uy, Initial residual = 1.17102e-05, Final residual = 2.24881e-07, No Iterations 2
smoothSolver:  Solving for Uz, Initial residual = 1.43176e-05, Final residual = 2.78833e-07, No Iterations 2
GAMG:  Solving for p, Initial residual = 5.22238e-05, Final residual = 1.78228e-06, No Iterations 2
time step continuity errors : sum local = 3.77597e-09, global = -1.56383e-09, cumulative = 2.25381e-06
smoothSolver:  Solving for omega, Initial residual = 7.61855e-09, Final residual = 7.61855e-09, No Iterations 0
smoothSolver:  Solving for k, Initial residual = 2.22931e-08, Final residual = 2.04129e-09, No Iterations 1
ExecutionTime = 72.93 s  ClockTime = 73 s

forces forcesFish write:
    Sum of forces
        Total    : (0.0480981 0.00042059 -9.32816e-05)
        Pressure : (0.0104966 0.000406377 -0.000104265)
        Viscous  : (0.0376016 1.42135e-05 1.09832e-05)
    Sum of moments
        Total    : (-7.64121e-08 2.08214e-05 0.000154757)
        Pressure : (-5.93793e-08 2.14074e-05 0.000146377)
        Viscous  : (-1.70328e-08 -5.85971e-07 8.38069e-06)
    writing force and moment files.

Time = 140

smoothSolver:  Solving for Ux, Initial residual = 3.17918e-07, Final residual = 3.02177e-08, No Iterations 1
smoothSolver:  Solving for Uy, Initial residual = 1.10749e-05, Final residual = 2.1195e-07, No Iterations 2
smoothSolver:  Solving for Uz, Initial residual = 1.35461e-05, Final residual = 2.62613e-07, No Iterations 2
GAMG:  Solving for p, Initial residual = 4.95189e-05, Final residual = 2.05113e-06, No Iterations 2
time step continuity errors : sum local = 4.34562e-09, global = -2.12331e-09, cumulative = 2.25168e-06
smoothSolver:  Solving for omega, Initial residual = 8.2784e-09, Final residual = 8.2784e-09, No Iterations 0
smoothSolver:  Solving for k, Initial residual = 2.11719e-08, Final residual = 1.94114e-09, No Iterations 1
ExecutionTime = 73.42 s  ClockTime = 73 s

forces forcesFish write:
    Sum of forces
        Total    : (0.0480976 0.000420707 -9.3308e-05)
        Pressure : (0.0104964 0.000406491 -0.000104291)
        Viscous  : (0.0376012 1.42153e-05 1.09831e-05)
    Sum of moments
        Total    : (-7.62354e-08 2.08307e-05 0.000154801)
        Pressure : (-5.92001e-08 2.14167e-05 0.00014642)
        Viscous  : (-1.70353e-08 -5.86017e-07 8.38011e-06)
    writing force and moment files.

Time = 141

smoothSolver:  Solving for Ux, Initial residual = 3.04648e-07, Final residual = 2.87976e-08, No Iterations 1
smoothSolver:  Solving for Uy, Initial residual = 1.04804e-05, Final residual = 2.00284e-07, No Iterations 2
smoothSolver:  Solving for Uz, Initial residual = 1.28345e-05, Final residual = 2.48127e-07, No Iterations 2
GAMG:  Solving for p, Initial residual = 4.70115e-05, Final residual = 2.28427e-06, No Iterations 2
time step continuity errors : sum local = 4.8396e-09, global = -2.40738e-09, cumulative = 2.24928e-06
smoothSolver:  Solving for omega, Initial residual = 8.90463e-09, Final residual = 8.90463e-09, No Iterations 0
smoothSolver:  Solving for k, Initial residual = 2.01525e-08, Final residual = 1.84928e-09, No Iterations 1
ExecutionTime = 73.95 s  ClockTime = 74 s

forces forcesFish write:
    Sum of forces
        Total    : (0.0480971 0.000420817 -9.33327e-05)
        Pressure : (0.0104963 0.0004066 -0.000104316)
        Viscous  : (0.0376008 1.42171e-05 1.0983e-05)
    Sum of moments
        Total    : (-7.60658e-08 2.08394e-05 0.000154841)
        Pressure : (-5.90282e-08 2.14255e-05 0.000146462)
        Viscous  : (-1.70377e-08 -5.86038e-07 8.37958e-06)
    writing force and moment files.

Time = 142

smoothSolver:  Solving for Ux, Initial residual = 2.96362e-07, Final residual = 2.77323e-08, No Iterations 1
smoothSolver:  Solving for Uy, Initial residual = 9.91878e-06, Final residual = 1.89623e-07, No Iterations 2
smoothSolver:  Solving for Uz, Initial residual = 1.21662e-05, Final residual = 2.34968e-07, No Iterations 2
GAMG:  Solving for p, Initial residual = 4.46415e-05, Final residual = 2.44997e-06, No Iterations 2
time step continuity errors : sum local = 5.19066e-09, global = -2.43153e-09, cumulative = 2.24685e-06
smoothSolver:  Solving for omega, Initial residual = 9.4966e-09, Final residual = 9.4966e-09, No Iterations 0
smoothSolver:  Solving for k, Initial residual = 1.92117e-08, Final residual = 1.76477e-09, No Iterations 1
ExecutionTime = 74.46 s  ClockTime = 74 s

forces forcesFish write:
    Sum of forces
        Total    : (0.0480966 0.000420922 -9.33552e-05)
        Pressure : (0.0104961 0.000406704 -0.000104338)
        Viscous  : (0.0376005 1.42188e-05 1.09828e-05)
    Sum of moments
        Total    : (-7.59066e-08 2.08476e-05 0.00015488)
        Pressure : (-5.88668e-08 2.14336e-05 0.000146501)
        Viscous  : (-1.70398e-08 -5.86038e-07 8.37912e-06)
    writing force and moment files.

Time = 143

smoothSolver:  Solving for Ux, Initial residual = 2.9314e-07, Final residual = 2.70308e-08, No Iterations 1
smoothSolver:  Solving for Uy, Initial residual = 9.38055e-06, Final residual = 1.79629e-07, No Iterations 2
smoothSolver:  Solving for Uz, Initial residual = 1.15229e-05, Final residual = 2.22665e-07, No Iterations 2
GAMG:  Solving for p, Initial residual = 4.23555e-05, Final residual = 2.51327e-06, No Iterations 2
time step continuity errors : sum local = 5.32473e-09, global = -2.28892e-09, cumulative = 2.24456e-06
smoothSolver:  Solving for omega, Initial residual = 1.00548e-08, Final residual = 1.66866e-09, No Iterations 1
smoothSolver:  Solving for k, Initial residual = 1.7708e-08, Final residual = 1.59275e-09, No Iterations 1
ExecutionTime = 74.99 s  ClockTime = 75 s

forces forcesFish write:
    Sum of forces
        Total    : (0.0480962 0.000421021 -9.3375e-05)
        Pressure : (0.010496 0.0004068 -0.000104357)
        Viscous  : (0.0376002 1.42205e-05 1.09825e-05)
    Sum of moments
        Total    : (-7.57614e-08 2.08549e-05 0.000154917)
        Pressure : (-5.87196e-08 2.14409e-05 0.000146538)
        Viscous  : (-1.70418e-08 -5.86019e-07 8.3787e-06)
    writing force and moment files.

Time = 144

smoothSolver:  Solving for Ux, Initial residual = 2.9394e-07, Final residual = 2.66382e-08, No Iterations 1
smoothSolver:  Solving for Uy, Initial residual = 8.85287e-06, Final residual = 1.69638e-07, No Iterations 2
smoothSolver:  Solving for Uz, Initial residual = 1.08818e-05, Final residual = 2.10246e-07, No Iterations 2
GAMG:  Solving for p, Initial residual = 4.00712e-05, Final residual = 2.45658e-06, No Iterations 2
time step continuity errors : sum local = 5.20456e-09, global = -2.08565e-09, cumulative = 2.24247e-06
smoothSolver:  Solving for omega, Initial residual = 7.29844e-09, Final residual = 7.29844e-09, No Iterations 0
smoothSolver:  Solving for k, Initial residual = 1.66995e-08, Final residual = 1.50162e-09, No Iterations 1
ExecutionTime = 75.48 s  ClockTime = 75 s

forces forcesFish write:
    Sum of forces
        Total    : (0.0480958 0.000421112 -9.33917e-05)
        Pressure : (0.0104959 0.00040689 -0.000104374)
        Viscous  : (0.0375999 1.42221e-05 1.09823e-05)
    Sum of moments
        Total    : (-7.56323e-08 2.08613e-05 0.000154951)
        Pressure : (-5.85886e-08 2.14473e-05 0.000146573)
        Viscous  : (-1.70437e-08 -5.85985e-07 8.37834e-06)
    writing force and moment files.

Time = 145

smoothSolver:  Solving for Ux, Initial residual = 2.96058e-07, Final residual = 2.63703e-08, No Iterations 1
smoothSolver:  Solving for Uy, Initial residual = 8.33417e-06, Final residual = 1.59839e-07, No Iterations 2
smoothSolver:  Solving for Uz, Initial residual = 1.02526e-05, Final residual = 1.98262e-07, No Iterations 2
GAMG:  Solving for p, Initial residual = 3.77795e-05, Final residual = 2.30368e-06, No Iterations 2
time step continuity errors : sum local = 4.88057e-09, global = -1.85046e-09, cumulative = 2.24062e-06
smoothSolver:  Solving for omega, Initial residual = 7.78104e-09, Final residual = 7.78104e-09, No Iterations 0
smoothSolver:  Solving for k, Initial residual = 1.58728e-08, Final residual = 1.43047e-09, No Iterations 1
ExecutionTime = 75.94 s  ClockTime = 76 s

forces forcesFish write:
    Sum of forces
        Total    : (0.0480954 0.000421197 -9.34055e-05)
        Pressure : (0.0104958 0.000406973 -0.000104387)
        Viscous  : (0.0375996 1.42237e-05 1.0982e-05)
    Sum of moments
        Total    : (-7.5518e-08 2.08669e-05 0.000154983)
        Pressure : (-5.84726e-08 2.14528e-05 0.000146605)
        Viscous  : (-1.70454e-08 -5.85938e-07 8.37802e-06)
    writing force and moment files.

Time = 146

smoothSolver:  Solving for Ux, Initial residual = 2.97028e-07, Final residual = 2.60666e-08, No Iterations 1
smoothSolver:  Solving for Uy, Initial residual = 7.82991e-06, Final residual = 1.4992e-07, No Iterations 2
smoothSolver:  Solving for Uz, Initial residual = 9.62664e-06, Final residual = 1.86071e-07, No Iterations 2
GAMG:  Solving for p, Initial residual = 3.55013e-05, Final residual = 2.09135e-06, No Iterations 2
time step continuity errors : sum local = 4.43071e-09, global = -1.54505e-09, cumulative = 2.23908e-06
smoothSolver:  Solving for omega, Initial residual = 8.23685e-09, Final residual = 8.23685e-09, No Iterations 0
smoothSolver:  Solving for k, Initial residual = 1.51355e-08, Final residual = 1.3638e-09, No Iterations 1
ExecutionTime = 76.47 s  ClockTime = 76 s


SIMPLE solution converged in 146 iterations

forces forcesFish write:
    Sum of forces
        Total    : (0.0480951 0.000421274 -9.3417e-05)
        Pressure : (0.0104958 0.000407049 -0.000104399)
        Viscous  : (0.0375993 1.42252e-05 1.09817e-05)
    Sum of moments
        Total    : (-7.54145e-08 2.08718e-05 0.000155012)
        Pressure : (-5.83674e-08 2.14577e-05 0.000146634)
        Viscous  : (-1.70471e-08 -5.85881e-07 8.37773e-06)
    writing force and moment files.

End

