/*---------------------------------------------------------------------------*\
| =========                 |                                                 |
| \\      /  F ield         | OpenFOAM: The Open Source CFD Toolbox           |
|  \\    /   O peration     | Version:  2512                                  |
|   \\  /    A nd           | Website:  www.openfoam.com                      |
|    \\/     M anipulation  |                                                 |
\*---------------------------------------------------------------------------*/
Build  : _bd2b6720-20260127 OPENFOAM=2512 version=2512
Arch   : "LSB;label=32;scalar=64"
Exec   : simpleFoam
Date   : Mar 27 2026
Time   : 17:09:15
Host   : mathias-laptop
PID    : 209643
I/O    : uncollated
Case   : /home/mat/OpenFOAM/mat-run/speed_sweep_runs/U_0p4
nProcs : 1
trapFpe: Floating point exception trapping enabled (FOAM_SIGFPE).
memory pool : not available
fileModificationChecking : Monitoring run-time modified files using timeStampMaster (fileModificationSkew 5, maxFileModificationPolls 20)
allowSystemOperations : Allowing user-supplied system call operations

// * * * * * * * * * * * * * * * * * * * * * * * * * * * * * * * * * * * * * //
Create time

Create mesh for time = 0


SIMPLE: convergence criteria
    field p	 tolerance 0.0001
    field U	 tolerance 1e-05
    field "(k|omega)"	 tolerance 1e-05

Reading field p

Reading field U

Reading/calculating face flux field phi

Selecting incompressible transport model Newtonian
Selecting turbulence model type RAS
Selecting RAS turbulence model kOmegaSST
Selecting patchDistMethod meshWave
RAS
{
    RASModel        kOmegaSST;
    turbulence      on;
    printCoeffs     on;
    alphaK1         0.85;
    alphaK2         1;
    alphaOmega1     0.5;
    alphaOmega2     0.856;
    gamma1          0.555556;
    gamma2          0.44;
    beta1           0.075;
    beta2           0.0828;
    betaStar        0.09;
    a1              0.31;
    b1              1;
    c1              10;
    F3              false;
    decayControl    false;
    kInf            0;
    omegaInf        0;
}

No MRF models present

No finite volume options present

Starting time loop

forces forcesFish:
    rho: rhoInf
    Freestream density (rhoInf) set to 1000
    Not including porosity effects

Time = 1

smoothSolver:  Solving for Ux, Initial residual = 1, Final residual = 0.0388393, No Iterations 2
smoothSolver:  Solving for Uy, Initial residual = 1, Final residual = 0.0431311, No Iterations 2
smoothSolver:  Solving for Uz, Initial residual = 1, Final residual = 0.0357697, No Iterations 2
GAMG:  Solving for p, Initial residual = 1, Final residual = 0.0546691, No Iterations 5
time step continuity errors : sum local = 2.96647e-05, global = -4.47905e-06, cumulative = -4.47905e-06
smoothSolver:  Solving for omega, Initial residual = 0.0117131, Final residual = 0.000633606, No Iterations 1
bounding omega, min: -12.4898 max: 11363.5 average: 124.583
smoothSolver:  Solving for k, Initial residual = 1, Final residual = 0.0549559, No Iterations 1
ExecutionTime = 2.9 s  ClockTime = 3 s

forces forcesFish write:
    Sum of forces
        Total    : (4.83314 -0.0772252 -0.0224479)
        Pressure : (4.65333 -0.0771788 -0.0224198)
        Viscous  : (0.179807 -4.63791e-05 -2.80315e-05)
    Sum of moments
        Total    : (0.00063698 0.00570697 0.0643755)
        Pressure : (0.000635848 0.00571873 0.0633699)
        Viscous  : (1.13168e-06 -1.17632e-05 0.00100557)
    writing force and moment files.

Time = 2

smoothSolver:  Solving for Ux, Initial residual = 0.0214825, Final residual = 0.00150167, No Iterations 2
smoothSolver:  Solving for Uy, Initial residual = 0.313928, Final residual = 0.0262533, No Iterations 2
smoothSolver:  Solving for Uz, Initial residual = 0.334184, Final residual = 0.0286177, No Iterations 2
GAMG:  Solving for p, Initial residual = 0.0874776, Final residual = 0.00731571, No Iterations 3
time step continuity errors : sum local = 5.56134e-05, global = -4.05411e-06, cumulative = -8.53316e-06
smoothSolver:  Solving for omega, Initial residual = 0.00621467, Final residual = 0.000347759, No Iterations 1
smoothSolver:  Solving for k, Initial residual = 0.373958, Final residual = 0.0225672, No Iterations 1
ExecutionTime = 3.79 s  ClockTime = 4 s

forces forcesFish write:
    Sum of forces
        Total    : (6.04946 0.0104707 -0.031393)
        Pressure : (5.8856 0.0107334 -0.0314173)
        Viscous  : (0.163857 -0.000262787 2.4299e-05)
    Sum of moments
        Total    : (0.000920574 0.00770828 0.0978205)
        Pressure : (0.000919969 0.00774249 0.0970402)
        Viscous  : (6.04914e-07 -3.42153e-05 0.000780366)
    writing force and moment files.

Time = 3

smoothSolver:  Solving for Ux, Initial residual = 0.00672406, Final residual = 0.000469658, No Iterations 2
smoothSolver:  Solving for Uy, Initial residual = 0.186639, Final residual = 0.0153952, No Iterations 2
smoothSolver:  Solving for Uz, Initial residual = 0.21628, Final residual = 0.0182564, No Iterations 2
GAMG:  Solving for p, Initial residual = 0.321147, Final residual = 0.0279293, No Iterations 2
time step continuity errors : sum local = 9.48614e-05, global = -4.72541e-06, cumulative = -1.32586e-05
smoothSolver:  Solving for omega, Initial residual = 0.00397747, Final residual = 0.000244411, No Iterations 1
smoothSolver:  Solving for k, Initial residual = 0.21451, Final residual = 0.0138366, No Iterations 1
ExecutionTime = 4.62 s  ClockTime = 5 s

forces forcesFish write:
    Sum of forces
        Total    : (5.5631 0.0656429 -0.0284789)
        Pressure : (5.41268 0.065943 -0.0285658)
        Viscous  : (0.150416 -0.000300059 8.6992e-05)
    Sum of moments
        Total    : (0.000873812 0.00745557 0.0989964)
        Pressure : (0.000874067 0.00751324 0.0984173)
        Viscous  : (-2.54693e-07 -5.76735e-05 0.000579097)
    writing force and moment files.

Time = 4

smoothSolver:  Solving for Ux, Initial residual = 0.00357145, Final residual = 0.000242761, No Iterations 2
smoothSolver:  Solving for Uy, Initial residual = 0.128373, Final residual = 0.010407, No Iterations 2
smoothSolver:  Solving for Uz, Initial residual = 0.138913, Final residual = 0.0115179, No Iterations 2
GAMG:  Solving for p, Initial residual = 0.203688, Final residual = 0.00814441, No Iterations 3
time step continuity errors : sum local = 6.06633e-05, global = -4.03689e-06, cumulative = -1.72955e-05
smoothSolver:  Solving for omega, Initial residual = 0.00276334, Final residual = 0.000181694, No Iterations 1
smoothSolver:  Solving for k, Initial residual = 0.140061, Final residual = 0.00948747, No Iterations 1
ExecutionTime = 5.53 s  ClockTime = 5 s

forces forcesFish write:
    Sum of forces
        Total    : (4.09593 0.107986 -0.019825)
        Pressure : (3.95517 0.108238 -0.0199629)
        Viscous  : (0.14076 -0.000251836 0.000137964)
    Sum of moments
        Total    : (0.000687919 0.00562044 0.0809727)
        Pressure : (0.000689029 0.00569515 0.0805299)
        Viscous  : (-1.11043e-06 -7.4716e-05 0.000442848)
    writing force and moment files.

Time = 5

smoothSolver:  Solving for Ux, Initial residual = 0.00209505, Final residual = 0.000133274, No Iterations 2
smoothSolver:  Solving for Uy, Initial residual = 0.0788844, Final residual = 0.00622526, No Iterations 2
smoothSolver:  Solving for Uz, Initial residual = 0.0834929, Final residual = 0.00671511, No Iterations 2
GAMG:  Solving for p, Initial residual = 0.0906736, Final residual = 0.00437847, No Iterations 3
time step continuity errors : sum local = 7.4604e-05, global = -2.49508e-06, cumulative = -1.97905e-05
smoothSolver:  Solving for omega, Initial residual = 0.00202332, Final residual = 0.0001397, No Iterations 1
smoothSolver:  Solving for k, Initial residual = 0.0992864, Final residual = 0.00698306, No Iterations 1
ExecutionTime = 6.42 s  ClockTime = 6 s

forces forcesFish write:
    Sum of forces
        Total    : (2.34316 0.127802 -0.00917494)
        Pressure : (2.2087 0.1279 -0.00934999)
        Viscous  : (0.134457 -9.81487e-05 0.00017504)
    Sum of moments
        Total    : (0.000451197 0.00315021 0.0528913)
        Pressure : (0.000452961 0.00323543 0.0525057)
        Viscous  : (-1.76376e-06 -8.52215e-05 0.000385574)
    writing force and moment files.

Time = 6

smoothSolver:  Solving for Ux, Initial residual = 0.00134285, Final residual = 6.77547e-05, No Iterations 2
smoothSolver:  Solving for Uy, Initial residual = 0.0426901, Final residual = 0.00280583, No Iterations 2
smoothSolver:  Solving for Uz, Initial residual = 0.0446094, Final residual = 0.00303295, No Iterations 2
GAMG:  Solving for p, Initial residual = 0.0489842, Final residual = 0.0027567, No Iterations 3
time step continuity errors : sum local = 7.19478e-05, global = -1.07028e-07, cumulative = -1.98976e-05
smoothSolver:  Solving for omega, Initial residual = 0.0015374, Final residual = 0.000109867, No Iterations 1
smoothSolver:  Solving for k, Initial residual = 0.074589, Final residual = 0.00540923, No Iterations 1
ExecutionTime = 7.32 s  ClockTime = 7 s

forces forcesFish write:
    Sum of forces
        Total    : (0.778377 0.129762 -0.000776033)
        Pressure : (0.647299 0.129699 -0.000976511)
        Viscous  : (0.131077 6.37065e-05 0.000200479)
    Sum of moments
        Total    : (0.000243063 0.000948325 0.0242614)
        Pressure : (0.000245294 0.00103898 0.0238735)
        Viscous  : (-2.23095e-06 -9.06566e-05 0.000387882)
    writing force and moment files.

Time = 7

smoothSolver:  Solving for Ux, Initial residual = 0.00112083, Final residual = 4.04709e-05, No Iterations 2
smoothSolver:  Solving for Uy, Initial residual = 0.0342781, Final residual = 0.00158719, No Iterations 2
smoothSolver:  Solving for Uz, Initial residual = 0.0352891, Final residual = 0.00150177, No Iterations 2
GAMG:  Solving for p, Initial residual = 0.029706, Final residual = 0.00172145, No Iterations 3
time step continuity errors : sum local = 5.65829e-05, global = 2.41267e-06, cumulative = -1.74849e-05
smoothSolver:  Solving for omega, Initial residual = 0.00120403, Final residual = 8.81584e-05, No Iterations 1
smoothSolver:  Solving for k, Initial residual = 0.0586279, Final residual = 0.00436632, No Iterations 1
ExecutionTime = 8.31 s  ClockTime = 8 s

forces forcesFish write:
    Sum of forces
        Total    : (-0.327244 0.120369 0.00324596)
        Pressure : (-0.457033 0.120214 0.00302629)
        Viscous  : (0.129789 0.000154675 0.000219674)
    Sum of moments
        Total    : (0.00010672 -0.000518087 0.00178038)
        Pressure : (0.000109308 -0.000424531 0.00135549)
        Viscous  : (-2.58776e-06 -9.35566e-05 0.00042489)
    writing force and moment files.

Time = 8

smoothSolver:  Solving for Ux, Initial residual = 0.00115625, Final residual = 4.90842e-05, No Iterations 2
smoothSolver:  Solving for Uy, Initial residual = 0.0401232, Final residual = 0.00249307, No Iterations 2
smoothSolver:  Solving for Uz, Initial residual = 0.0468269, Final residual = 0.00291926, No Iterations 2
GAMG:  Solving for p, Initial residual = 0.0235607, Final residual = 0.00233576, No Iterations 2
time step continuity errors : sum local = 8.5018e-05, global = 4.44004e-06, cumulative = -1.30449e-05
smoothSolver:  Solving for omega, Initial residual = 0.000967642, Final residual = 7.22076e-05, No Iterations 1
smoothSolver:  Solving for k, Initial residual = 0.0477617, Final residual = 0.00364359, No Iterations 1
ExecutionTime = 9.17 s  ClockTime = 9 s

forces forcesFish write:
    Sum of forces
        Total    : (-0.847962 0.107524 0.00443254)
        Pressure : (-0.977613 0.10736 0.00420571)
        Viscous  : (0.129651 0.000164334 0.000226837)
    Sum of moments
        Total    : (3.05087e-05 -0.00120302 -0.0100082)
        Pressure : (3.33552e-05 -0.00111053 -0.0104845)
        Viscous  : (-2.84651e-06 -9.24876e-05 0.000476248)
    writing force and moment files.

Time = 9

smoothSolver:  Solving for Ux, Initial residual = 0.00125763, Final residual = 6.14101e-05, No Iterations 2
smoothSolver:  Solving for Uy, Initial residual = 0.0381198, Final residual = 0.0025625, No Iterations 2
smoothSolver:  Solving for Uz, Initial residual = 0.0532797, Final residual = 0.00364122, No Iterations 2
GAMG:  Solving for p, Initial residual = 0.0266727, Final residual = 0.0020193, No Iterations 2
time step continuity errors : sum local = 7.39535e-05, global = 7.10887e-06, cumulative = -5.93599e-06
smoothSolver:  Solving for omega, Initial residual = 0.000793027, Final residual = 6.02169e-05, No Iterations 1
smoothSolver:  Solving for k, Initial residual = 0.0400127, Final residual = 0.00311823, No Iterations 1
ExecutionTime = 10.02 s  ClockTime = 10 s

forces forcesFish write:
    Sum of forces
        Total    : (-0.920559 0.0898772 0.00167874)
        Pressure : (-1.05034 0.0897435 0.00145758)
        Viscous  : (0.129777 0.000133668 0.000221162)
    Sum of moments
        Total    : (3.37274e-05 -0.00114904 -0.0135901)
        Pressure : (3.66847e-05 -0.00106018 -0.0141165)
        Viscous  : (-2.95721e-06 -8.88585e-05 0.000526352)
    writing force and moment files.

Time = 10

smoothSolver:  Solving for Ux, Initial residual = 0.00130829, Final residual = 6.56821e-05, No Iterations 2
smoothSolver:  Solving for Uy, Initial residual = 0.0304981, Final residual = 0.00205149, No Iterations 2
smoothSolver:  Solving for Uz, Initial residual = 0.051663, Final residual = 0.00354878, No Iterations 2
GAMG:  Solving for p, Initial residual = 0.0323082, Final residual = 0.00246197, No Iterations 2
time step continuity errors : sum local = 8.48811e-05, global = 9.53962e-06, cumulative = 3.60363e-06
smoothSolver:  Solving for omega, Initial residual = 0.000659797, Final residual = 5.10473e-05, No Iterations 1
smoothSolver:  Solving for k, Initial residual = 0.0342447, Final residual = 0.00271904, No Iterations 1
ExecutionTime = 10.91 s  ClockTime = 11 s

forces forcesFish write:
    Sum of forces
        Total    : (-0.700242 0.0657221 -0.00362199)
        Pressure : (-0.829757 0.0656327 -0.00382726)
        Viscous  : (0.129515 8.94042e-05 0.00020527)
    Sum of moments
        Total    : (8.77908e-05 -0.000574776 -0.0118315)
        Pressure : (9.07616e-05 -0.000491061 -0.0123958)
        Viscous  : (-2.97082e-06 -8.37148e-05 0.000564271)
    writing force and moment files.

Time = 11

smoothSolver:  Solving for Ux, Initial residual = 0.00125879, Final residual = 6.02069e-05, No Iterations 2
smoothSolver:  Solving for Uy, Initial residual = 0.0219067, Final residual = 0.0013864, No Iterations 2
smoothSolver:  Solving for Uz, Initial residual = 0.0443865, Final residual = 0.00288476, No Iterations 2
GAMG:  Solving for p, Initial residual = 0.0354959, Final residual = 0.00293877, No Iterations 2
time step continuity errors : sum local = 9.0235e-05, global = 1.09741e-05, cumulative = 1.45777e-05
smoothSolver:  Solving for omega, Initial residual = 0.000555586, Final residual = 4.37637e-05, No Iterations 1
smoothSolver:  Solving for k, Initial residual = 0.0297681, Final residual = 0.00240298, No Iterations 1
ExecutionTime = 11.82 s  ClockTime = 12 s

forces forcesFish write:
    Sum of forces
        Total    : (-0.321359 0.0363693 -0.00918469)
        Pressure : (-0.4499 0.0363111 -0.00936938)
        Viscous  : (0.128541 5.81979e-05 0.000184692)
    Sum of moments
        Total    : (0.000162364 0.000180728 -0.0073108)
        Pressure : (0.000165334 0.000258749 -0.00789843)
        Viscous  : (-2.96987e-06 -7.80208e-05 0.00058763)
    writing force and moment files.

Time = 12

smoothSolver:  Solving for Ux, Initial residual = 0.00110953, Final residual = 4.713e-05, No Iterations 2
smoothSolver:  Solving for Uy, Initial residual = 0.0152138, Final residual = 0.000781233, No Iterations 2
smoothSolver:  Solving for Uz, Initial residual = 0.0350489, Final residual = 0.00188068, No Iterations 2
GAMG:  Solving for p, Initial residual = 0.0365392, Final residual = 0.00327585, No Iterations 2
time step continuity errors : sum local = 8.53715e-05, global = 1.13808e-05, cumulative = 2.59585e-05
smoothSolver:  Solving for omega, Initial residual = 0.000472439, Final residual = 3.77887e-05, No Iterations 1
smoothSolver:  Solving for k, Initial residual = 0.0261823, Final residual = 0.00214472, No Iterations 1
ExecutionTime = 12.7 s  ClockTime = 13 s

forces forcesFish write:
    Sum of forces
        Total    : (0.0853154 0.00775804 -0.0125645)
        Pressure : (-0.0415169 0.00770953 -0.0127275)
        Viscous  : (0.126832 4.8513e-05 0.000163079)
    Sum of moments
        Total    : (0.000226367 0.000740362 -0.00203997)
        Pressure : (0.000229342 0.000812788 -0.00263614)
        Viscous  : (-2.97468e-06 -7.24256e-05 0.000596171)
    writing force and moment files.

Time = 13

smoothSolver:  Solving for Ux, Initial residual = 0.000921024, Final residual = 3.23689e-05, No Iterations 2
smoothSolver:  Solving for Uy, Initial residual = 0.0125315, Final residual = 0.000527822, No Iterations 2
smoothSolver:  Solving for Uz, Initial residual = 0.03092, Final residual = 0.00128376, No Iterations 2
GAMG:  Solving for p, Initial residual = 0.0369763, Final residual = 0.00328278, No Iterations 2
time step continuity errors : sum local = 7.107e-05, global = 1.0679e-05, cumulative = 3.66375e-05
smoothSolver:  Solving for omega, Initial residual = 0.000405164, Final residual = 3.28098e-05, No Iterations 1
smoothSolver:  Solving for k, Initial residual = 0.0232817, Final residual = 0.00193181, No Iterations 1
ExecutionTime = 13.54 s  ClockTime = 13 s

forces forcesFish write:
    Sum of forces
        Total    : (0.424057 -0.0136939 -0.0126073)
        Pressure : (0.29947 -0.0137557 -0.012751)
        Viscous  : (0.124587 6.17665e-05 0.000143671)
    Sum of moments
        Total    : (0.000260032 0.000908283 0.00276579)
        Pressure : (0.000263035 0.000975318 0.00217272)
        Viscous  : (-3.00279e-06 -6.70344e-05 0.000593069)
    writing force and moment files.

Time = 14

smoothSolver:  Solving for Ux, Initial residual = 0.000770823, Final residual = 2.3538e-05, No Iterations 2
smoothSolver:  Solving for Uy, Initial residual = 0.0125935, Final residual = 0.00059414, No Iterations 2
smoothSolver:  Solving for Uz, Initial residual = 0.0321718, Final residual = 0.00144859, No Iterations 2
GAMG:  Solving for p, Initial residual = 0.0376982, Final residual = 0.0029, No Iterations 2
time step continuity errors : sum local = 5.32077e-05, global = 9.21434e-06, cumulative = 4.58518e-05
smoothSolver:  Solving for omega, Initial residual = 0.000349869, Final residual = 2.8595e-05, No Iterations 1
smoothSolver:  Solving for k, Initial residual = 0.020849, Final residual = 0.00174948, No Iterations 1
ExecutionTime = 14.4 s  ClockTime = 14 s

forces forcesFish write:
    Sum of forces
        Total    : (0.644479 -0.0236339 -0.00962531)
        Pressure : (0.522378 -0.0237237 -0.00975645)
        Viscous  : (0.122101 8.97456e-05 0.000131139)
    Sum of moments
        Total    : (0.000257826 0.000704552 0.0065601)
        Pressure : (0.000260895 0.000767782 0.00597752)
        Viscous  : (-3.06849e-06 -6.32303e-05 0.000582578)
    writing force and moment files.

Time = 15

smoothSolver:  Solving for Ux, Initial residual = 0.000686649, Final residual = 2.08297e-05, No Iterations 2
smoothSolver:  Solving for Uy, Initial residual = 0.01269, Final residual = 0.000660628, No Iterations 2
smoothSolver:  Solving for Uz, Initial residual = 0.0330099, Final residual = 0.00170167, No Iterations 2
GAMG:  Solving for p, Initial residual = 0.0399118, Final residual = 0.00251598, No Iterations 2
time step continuity errors : sum local = 4.18057e-05, global = 7.64553e-06, cumulative = 5.34973e-05
smoothSolver:  Solving for omega, Initial residual = 0.000303734, Final residual = 2.49946e-05, No Iterations 1
smoothSolver:  Solving for k, Initial residual = 0.0188158, Final residual = 0.00159451, No Iterations 1
ExecutionTime = 15.28 s  ClockTime = 15 s

forces forcesFish write:
    Sum of forces
        Total    : (0.736995 -0.0214343 -0.00519529)
        Pressure : (0.617347 -0.0215568 -0.00532111)
        Viscous  : (0.119648 0.000122479 0.000125821)
    Sum of moments
        Total    : (0.000229012 0.000313075 0.0092016)
        Pressure : (0.00023217 0.000374281 0.00863312)
        Viscous  : (-3.15826e-06 -6.12054e-05 0.000568472)
    writing force and moment files.

Time = 16

smoothSolver:  Solving for Ux, Initial residual = 0.000630139, Final residual = 1.93038e-05, No Iterations 2
smoothSolver:  Solving for Uy, Initial residual = 0.0119202, Final residual = 0.000619216, No Iterations 2
smoothSolver:  Solving for Uz, Initial residual = 0.0313448, Final residual = 0.00165912, No Iterations 2
GAMG:  Solving for p, Initial residual = 0.0424172, Final residual = 0.00269068, No Iterations 2
time step continuity errors : sum local = 4.42021e-05, global = 5.63283e-06, cumulative = 5.91302e-05
smoothSolver:  Solving for omega, Initial residual = 0.000264856, Final residual = 2.19307e-05, No Iterations 1
smoothSolver:  Solving for k, Initial residual = 0.0170688, Final residual = 0.0014593, No Iterations 1
ExecutionTime = 16.14 s  ClockTime = 16 s

forces forcesFish write:
    Sum of forces
        Total    : (0.73174 -0.0105164 -0.000806406)
        Pressure : (0.61431 -0.0106669 -0.000933864)
        Viscous  : (0.11743 0.00015052 0.000127457)
    Sum of moments
        Total    : (0.000187429 -7.55052e-05 0.0108229)
        Pressure : (0.000190708 -1.45035e-05 0.0102687)
        Viscous  : (-3.27854e-06 -6.10017e-05 0.000554199)
    writing force and moment files.

Time = 17

smoothSolver:  Solving for Ux, Initial residual = 0.000571548, Final residual = 1.77097e-05, No Iterations 2
smoothSolver:  Solving for Uy, Initial residual = 0.0103018, Final residual = 0.000493808, No Iterations 2
smoothSolver:  Solving for Uz, Initial residual = 0.0273722, Final residual = 0.00136884, No Iterations 2
GAMG:  Solving for p, Initial residual = 0.0403069, Final residual = 0.00261406, No Iterations 2
time step continuity errors : sum local = 4.52288e-05, global = 2.75325e-06, cumulative = 6.18834e-05
smoothSolver:  Solving for omega, Initial residual = 0.000231705, Final residual = 1.92613e-05, No Iterations 1
smoothSolver:  Solving for k, Initial residual = 0.015571, Final residual = 0.00134211, No Iterations 1
ExecutionTime = 17.01 s  ClockTime = 17 s

forces forcesFish write:
    Sum of forces
        Total    : (0.668548 0.00643071 0.00326164)
        Pressure : (0.55299 0.00626462 0.00312822)
        Viscous  : (0.115559 0.000166083 0.000133419)
    Sum of moments
        Total    : (0.000136807 -0.000411761 0.0118835)
        Pressure : (0.000140218 -0.000349732 0.0113419)
        Viscous  : (-3.41094e-06 -6.20286e-05 0.000541634)
    writing force and moment files.

Time = 18

smoothSolver:  Solving for Ux, Initial residual = 0.000509775, Final residual = 1.58095e-05, No Iterations 2
smoothSolver:  Solving for Uy, Initial residual = 0.00838109, Final residual = 0.00033865, No Iterations 2
smoothSolver:  Solving for Uz, Initial residual = 0.0223901, Final residual = 0.000959012, No Iterations 2
GAMG:  Solving for p, Initial residual = 0.034262, Final residual = 0.00229616, No Iterations 2
time step continuity errors : sum local = 4.32897e-05, global = -2.87432e-07, cumulative = 6.1596e-05
smoothSolver:  Solving for omega, Initial residual = 0.000203424, Final residual = 1.69489e-05, No Iterations 1
smoothSolver:  Solving for k, Initial residual = 0.0142674, Final residual = 0.00123906, No Iterations 1
ExecutionTime = 17.88 s  ClockTime = 18 s

forces forcesFish write:
    Sum of forces
        Total    : (0.578715 0.0255348 0.00585001)
        Pressure : (0.464655 0.0253708 0.00570911)
        Viscous  : (0.11406 0.000163993 0.0001409)
    Sum of moments
        Total    : (9.06329e-05 -0.000546551 0.0126161)
        Pressure : (9.41618e-05 -0.000482793 0.0120848)
        Viscous  : (-3.52893e-06 -6.37586e-05 0.000531305)
    writing force and moment files.

Time = 19

smoothSolver:  Solving for Ux, Initial residual = 0.000451344, Final residual = 1.37141e-05, No Iterations 2
smoothSolver:  Solving for Uy, Initial residual = 0.00689436, Final residual = 0.000228549, No Iterations 2
smoothSolver:  Solving for Uz, Initial residual = 0.0182564, Final residual = 0.000604225, No Iterations 2
GAMG:  Solving for p, Initial residual = 0.0276669, Final residual = 0.00187442, No Iterations 2
time step continuity errors : sum local = 3.87622e-05, global = -2.76963e-06, cumulative = 5.88263e-05
smoothSolver:  Solving for omega, Initial residual = 0.000179314, Final residual = 1.49689e-05, No Iterations 1
smoothSolver:  Solving for k, Initial residual = 0.0131277, Final residual = 0.00114803, No Iterations 1
ExecutionTime = 18.73 s  ClockTime = 19 s

forces forcesFish write:
    Sum of forces
        Total    : (0.489724 0.042384 0.0061705)
        Pressure : (0.376836 0.0422419 0.00602286)
        Viscous  : (0.112888 0.000142098 0.00014764)
    Sum of moments
        Total    : (6.10076e-05 -0.000386133 0.013108)
        Pressure : (6.46432e-05 -0.000320442 0.0125851)
        Viscous  : (-3.63557e-06 -6.56908e-05 0.000522919)
    writing force and moment files.

Time = 20

smoothSolver:  Solving for Ux, Initial residual = 0.000402789, Final residual = 1.18283e-05, No Iterations 2
smoothSolver:  Solving for Uy, Initial residual = 0.00602847, Final residual = 0.000203037, No Iterations 2
smoothSolver:  Solving for Uz, Initial residual = 0.0163655, Final residual = 0.000500955, No Iterations 2
GAMG:  Solving for p, Initial residual = 0.0223265, Final residual = 0.00148407, No Iterations 2
time step continuity errors : sum local = 3.31444e-05, global = -4.90341e-06, cumulative = 5.39229e-05
smoothSolver:  Solving for omega, Initial residual = 0.000158679, Final residual = 1.32851e-05, No Iterations 1
smoothSolver:  Solving for k, Initial residual = 0.0121235, Final residual = 0.0010669, No Iterations 1
ExecutionTime = 19.63 s  ClockTime = 20 s

forces forcesFish write:
    Sum of forces
        Total    : (0.419915 0.0536296 0.00426512)
        Pressure : (0.307953 0.053526 0.00411288)
        Viscous  : (0.111962 0.00010357 0.000152245)
    Sum of moments
        Total    : (5.28598e-05 4.92205e-05 0.0133484)
        Pressure : (5.65958e-05 0.000116702 0.0128322)
        Viscous  : (-3.73597e-06 -6.74812e-05 0.000516144)
    writing force and moment files.

Time = 21

smoothSolver:  Solving for Ux, Initial residual = 0.000363097, Final residual = 1.07633e-05, No Iterations 2
smoothSolver:  Solving for Uy, Initial residual = 0.00539379, Final residual = 0.000202963, No Iterations 2
smoothSolver:  Solving for Uz, Initial residual = 0.0156064, Final residual = 0.000548871, No Iterations 2
GAMG:  Solving for p, Initial residual = 0.0189504, Final residual = 0.00120773, No Iterations 2
time step continuity errors : sum local = 2.83713e-05, global = -6.54205e-06, cumulative = 4.73809e-05
smoothSolver:  Solving for omega, Initial residual = 0.000140885, Final residual = 1.1845e-05, No Iterations 1
smoothSolver:  Solving for k, Initial residual = 0.0112296, Final residual = 0.000993773, No Iterations 1
ExecutionTime = 20.5 s  ClockTime = 20 s

forces forcesFish write:
    Sum of forces
        Total    : (0.377139 0.0577978 0.000889327)
        Pressure : (0.265954 0.0577433 0.000734725)
        Viscous  : (0.111185 5.45875e-05 0.000154603)
    Sum of moments
        Total    : (6.35392e-05 0.000641498 0.0132917)
        Pressure : (6.73874e-05 0.000710407 0.0127814)
        Viscous  : (-3.84818e-06 -6.89091e-05 0.000510315)
    writing force and moment files.

Time = 22

smoothSolver:  Solving for Ux, Initial residual = 0.000337398, Final residual = 9.95208e-06, No Iterations 2
smoothSolver:  Solving for Uy, Initial residual = 0.00474875, Final residual = 0.00018885, No Iterations 2
smoothSolver:  Solving for Uz, Initial residual = 0.0145818, Final residual = 0.000565514, No Iterations 2
GAMG:  Solving for p, Initial residual = 0.0175351, Final residual = 0.00110117, No Iterations 2
time step continuity errors : sum local = 2.64564e-05, global = -7.6085e-06, cumulative = 3.97724e-05
smoothSolver:  Solving for omega, Initial residual = 0.000125388, Final residual = 1.05984e-05, No Iterations 1
smoothSolver:  Solving for k, Initial residual = 0.0104297, Final residual = 0.000927484, No Iterations 1
ExecutionTime = 21.31 s  ClockTime = 21 s

forces forcesFish write:
    Sum of forces
        Total    : (0.359622 0.055579 -0.00297056)
        Pressure : (0.249147 0.055576 -0.00312575)
        Viscous  : (0.110475 3.07418e-06 0.000155189)
    Sum of moments
        Total    : (8.58028e-05 0.00124847 0.0129488)
        Pressure : (8.97757e-05 0.00131852 0.0124438)
        Viscous  : (-3.97284e-06 -7.00491e-05 0.000505017)
    writing force and moment files.

Time = 23

smoothSolver:  Solving for Ux, Initial residual = 0.000319322, Final residual = 9.11281e-06, No Iterations 2
smoothSolver:  Solving for Uy, Initial residual = 0.00407615, Final residual = 0.000159645, No Iterations 2
smoothSolver:  Solving for Uz, Initial residual = 0.0131433, Final residual = 0.00051477, No Iterations 2
GAMG:  Solving for p, Initial residual = 0.0171684, Final residual = 0.00103557, No Iterations 2
time step continuity errors : sum local = 2.48692e-05, global = -8.08473e-06, cumulative = 3.16877e-05
smoothSolver:  Solving for omega, Initial residual = 0.000111804, Final residual = 9.51563e-06, No Iterations 1
smoothSolver:  Solving for k, Initial residual = 0.00970539, Final residual = 0.000866639, No Iterations 1
ExecutionTime = 22.12 s  ClockTime = 22 s

forces forcesFish write:
    Sum of forces
        Total    : (0.359627 0.0485573 -0.00679295)
        Pressure : (0.249858 0.0485997 -0.00694794)
        Viscous  : (0.109769 -4.24246e-05 0.000154986)
    Sum of moments
        Total    : (0.000114719 0.00180019 0.0123482)
        Pressure : (0.00011883 0.0018712 0.0118479)
        Viscous  : (-4.11081e-06 -7.10113e-05 0.000500247)
    writing force and moment files.

Time = 24

smoothSolver:  Solving for Ux, Initial residual = 0.000300465, Final residual = 8.27412e-06, No Iterations 2
smoothSolver:  Solving for Uy, Initial residual = 0.00349897, Final residual = 0.000124103, No Iterations 2
smoothSolver:  Solving for Uz, Initial residual = 0.0114898, Final residual = 0.000417789, No Iterations 2
GAMG:  Solving for p, Initial residual = 0.0168361, Final residual = 0.000958357, No Iterations 2
time step continuity errors : sum local = 2.26326e-05, global = -7.98657e-06, cumulative = 2.37011e-05
smoothSolver:  Solving for omega, Initial residual = 9.98222e-05, Final residual = 8.5572e-06, No Iterations 1
smoothSolver:  Solving for k, Initial residual = 0.00904614, Final residual = 0.000810534, No Iterations 1
ExecutionTime = 22.94 s  ClockTime = 23 s

forces forcesFish write:
    Sum of forces
        Total    : (0.369541 0.038454 -0.0100057)
        Pressure : (0.260505 0.0385302 -0.0101607)
        Viscous  : (0.109036 -7.62167e-05 0.000154912)
    Sum of moments
        Total    : (0.000144878 0.00221247 0.0115066)
        Pressure : (0.00014913 0.00228445 0.0110105)
        Viscous  : (-4.25168e-06 -7.19835e-05 0.000496135)
    writing force and moment files.

Time = 25

smoothSolver:  Solving for Ux, Initial residual = 0.0002815, Final residual = 7.46419e-06, No Iterations 2
smoothSolver:  Solving for Uy, Initial residual = 0.00316352, Final residual = 9.81753e-05, No Iterations 2
smoothSolver:  Solving for Uz, Initial residual = 0.0101092, Final residual = 0.000314647, No Iterations 2
GAMG:  Solving for p, Initial residual = 0.0160246, Final residual = 0.000889495, No Iterations 2
time step continuity errors : sum local = 2.04308e-05, global = -7.27721e-06, cumulative = 1.64239e-05
smoothSolver:  Solving for omega, Initial residual = 8.92163e-05, Final residual = 7.70239e-06, No Iterations 1
smoothSolver:  Solving for k, Initial residual = 0.00844121, Final residual = 0.000758412, No Iterations 1
ExecutionTime = 23.86 s  ClockTime = 24 s

forces forcesFish write:
    Sum of forces
        Total    : (0.382736 0.0275352 -0.0119923)
        Pressure : (0.274465 0.0276313 -0.0121479)
        Viscous  : (0.108271 -9.60908e-05 0.000155555)
    Sum of moments
        Total    : (0.000169357 0.00239983 0.0105314)
        Pressure : (0.000173742 0.00247289 0.0100386)
        Viscous  : (-4.38502e-06 -7.30677e-05 0.000492864)
    writing force and moment files.

Time = 26

smoothSolver:  Solving for Ux, Initial residual = 0.0002662, Final residual = 6.67291e-06, No Iterations 2
smoothSolver:  Solving for Uy, Initial residual = 0.00300535, Final residual = 8.73934e-05, No Iterations 2
smoothSolver:  Solving for Uz, Initial residual = 0.00925867, Final residual = 0.000253313, No Iterations 2
GAMG:  Solving for p, Initial residual = 0.0148749, Final residual = 0.000840721, No Iterations 2
time step continuity errors : sum local = 1.86936e-05, global = -6.12894e-06, cumulative = 1.02949e-05
smoothSolver:  Solving for omega, Initial residual = 7.97999e-05, Final residual = 6.93966e-06, No Iterations 1
smoothSolver:  Solving for k, Initial residual = 0.00788227, Final residual = 0.00070969, No Iterations 1
ExecutionTime = 24.99 s  ClockTime = 25 s

forces forcesFish write:
    Sum of forces
        Total    : (0.394263 0.0180177 -0.0124691)
        Pressure : (0.286775 0.0181205 -0.0126257)
        Viscous  : (0.107487 -0.000102798 0.000156558)
    Sum of moments
        Total    : (0.000183179 0.00233556 0.00959497)
        Pressure : (0.000187677 0.00240962 0.00910453)
        Viscous  : (-4.49773e-06 -7.40608e-05 0.000490442)
    writing force and moment files.

Time = 27

smoothSolver:  Solving for Ux, Initial residual = 0.000250188, Final residual = 5.93994e-06, No Iterations 2
smoothSolver:  Solving for Uy, Initial residual = 0.00287564, Final residual = 8.5206e-05, No Iterations 2
smoothSolver:  Solving for Uz, Initial residual = 0.00870087, Final residual = 0.000241603, No Iterations 2
GAMG:  Solving for p, Initial residual = 0.0136051, Final residual = 0.000768159, No Iterations 2
time step continuity errors : sum local = 1.65716e-05, global = -4.75653e-06, cumulative = 5.53842e-06
smoothSolver:  Solving for omega, Initial residual = 7.13989e-05, Final residual = 6.26144e-06, No Iterations 1
smoothSolver:  Solving for k, Initial residual = 0.00736448, Final residual = 0.000664067, No Iterations 1
ExecutionTime = 26.02 s  ClockTime = 26 s

forces forcesFish write:
    Sum of forces
        Total    : (0.401424 0.0114287 -0.0115851)
        Pressure : (0.294718 0.0115283 -0.0117436)
        Viscous  : (0.106707 -9.96258e-05 0.000158462)
    Sum of moments
        Total    : (0.000184995 0.00206426 0.00886388)
        Pressure : (0.000189583 0.00213935 0.0083752)
        Viscous  : (-4.58755e-06 -7.50942e-05 0.00048868)
    writing force and moment files.

Time = 28

smoothSolver:  Solving for Ux, Initial residual = 0.000234363, Final residual = 5.35904e-06, No Iterations 2
smoothSolver:  Solving for Uy, Initial residual = 0.00269518, Final residual = 8.28989e-05, No Iterations 2
smoothSolver:  Solving for Uz, Initial residual = 0.00809147, Final residual = 0.000241301, No Iterations 2
GAMG:  Solving for p, Initial residual = 0.0124637, Final residual = 0.000700539, No Iterations 2
time step continuity errors : sum local = 1.47766e-05, global = -3.28184e-06, cumulative = 2.25658e-06
smoothSolver:  Solving for omega, Initial residual = 6.38794e-05, Final residual = 5.65557e-06, No Iterations 1
smoothSolver:  Solving for k, Initial residual = 0.00687956, Final residual = 0.000620899, No Iterations 1
ExecutionTime = 26.91 s  ClockTime = 27 s

forces forcesFish write:
    Sum of forces
        Total    : (0.403633 0.00823361 -0.0098397)
        Pressure : (0.297683 0.00832412 -0.0100002)
        Viscous  : (0.105951 -9.05037e-05 0.000160537)
    Sum of moments
        Total    : (0.000177175 0.00168371 0.00843038)
        Pressure : (0.000181826 0.0017597 0.00794294)
        Viscous  : (-4.65054e-06 -7.59906e-05 0.000487439)
    writing force and moment files.

Time = 29

smoothSolver:  Solving for Ux, Initial residual = 0.000217956, Final residual = 4.88622e-06, No Iterations 2
smoothSolver:  Solving for Uy, Initial residual = 0.00246429, Final residual = 7.58881e-05, No Iterations 2
smoothSolver:  Solving for Uz, Initial residual = 0.00733881, Final residual = 0.000226592, No Iterations 2
GAMG:  Solving for p, Initial residual = 0.0116086, Final residual = 0.000687542, No Iterations 2
time step continuity errors : sum local = 1.43234e-05, global = -1.63066e-06, cumulative = 6.25923e-07
smoothSolver:  Solving for omega, Initial residual = 5.71169e-05, Final residual = 5.10865e-06, No Iterations 1
smoothSolver:  Solving for k, Initial residual = 0.00642725, Final residual = 0.000580248, No Iterations 1
ExecutionTime = 27.83 s  ClockTime = 28 s

forces forcesFish write:
    Sum of forces
        Total    : (0.401842 0.00780387 -0.0077719)
        Pressure : (0.296606 0.00788336 -0.00793429)
        Viscous  : (0.105235 -7.9493e-05 0.000162383)
    Sum of moments
        Total    : (0.000163587 0.00128575 0.00826356)
        Pressure : (0.000168277 0.00136246 0.00777705)
        Viscous  : (-4.68948e-06 -7.67123e-05 0.000486517)
    writing force and moment files.

Time = 30

smoothSolver:  Solving for Ux, Initial residual = 0.000202201, Final residual = 4.50481e-06, No Iterations 2
smoothSolver:  Solving for Uy, Initial residual = 0.0022112, Final residual = 6.51954e-05, No Iterations 2
smoothSolver:  Solving for Uz, Initial residual = 0.00650759, Final residual = 0.000195347, No Iterations 2
GAMG:  Solving for p, Initial residual = 0.0108309, Final residual = 0.000670308, No Iterations 2
time step continuity errors : sum local = 1.39111e-05, global = 1.38994e-07, cumulative = 7.64917e-07
smoothSolver:  Solving for omega, Initial residual = 5.10239e-05, Final residual = 4.61522e-06, No Iterations 1
smoothSolver:  Solving for k, Initial residual = 0.00599878, Final residual = 0.000541397, No Iterations 1
ExecutionTime = 28.81 s  ClockTime = 29 s

forces forcesFish write:
    Sum of forces
        Total    : (0.397686 0.00911689 -0.00568104)
        Pressure : (0.293115 0.00918642 -0.00584476)
        Viscous  : (0.104571 -6.95239e-05 0.000163718)
    Sum of moments
        Total    : (0.000146613 0.000916411 0.00827088)
        Pressure : (0.000151328 0.000993666 0.00778508)
        Viscous  : (-4.71558e-06 -7.72552e-05 0.000485795)
    writing force and moment files.

Time = 31

smoothSolver:  Solving for Ux, Initial residual = 0.000190194, Final residual = 4.21036e-06, No Iterations 2
smoothSolver:  Solving for Uy, Initial residual = 0.00198161, Final residual = 5.48904e-05, No Iterations 2
smoothSolver:  Solving for Uz, Initial residual = 0.00570359, Final residual = 0.000157894, No Iterations 2
GAMG:  Solving for p, Initial residual = 0.0100288, Final residual = 0.000617622, No Iterations 2
time step continuity errors : sum local = 1.28422e-05, global = 1.64956e-06, cumulative = 2.41448e-06
smoothSolver:  Solving for omega, Initial residual = 4.55431e-05, Final residual = 4.17109e-06, No Iterations 1
smoothSolver:  Solving for k, Initial residual = 0.00559675, Final residual = 0.000504633, No Iterations 1
ExecutionTime = 29.75 s  ClockTime = 30 s

forces forcesFish write:
    Sum of forces
        Total    : (0.392749 0.0112497 -0.00381579)
        Pressure : (0.288789 0.011312 -0.00398025)
        Viscous  : (0.103961 -6.23235e-05 0.000164466)
    Sum of moments
        Total    : (0.000128448 0.000616623 0.00837019)
        Pressure : (0.000133179 0.000694191 0.00788501)
        Viscous  : (-4.73084e-06 -7.75682e-05 0.000485183)
    writing force and moment files.

Time = 32

smoothSolver:  Solving for Ux, Initial residual = 0.00017952, Final residual = 3.97702e-06, No Iterations 2
smoothSolver:  Solving for Uy, Initial residual = 0.0018129, Final residual = 4.77593e-05, No Iterations 2
smoothSolver:  Solving for Uz, Initial residual = 0.00507538, Final residual = 0.000124802, No Iterations 2
GAMG:  Solving for p, Initial residual = 0.00926675, Final residual = 0.000553286, No Iterations 2
time step continuity errors : sum local = 1.15683e-05, global = 2.72061e-06, cumulative = 5.13508e-06
smoothSolver:  Solving for omega, Initial residual = 4.06093e-05, Final residual = 3.77275e-06, No Iterations 1
smoothSolver:  Solving for k, Initial residual = 0.00521199, Final residual = 0.000469177, No Iterations 1
ExecutionTime = 30.65 s  ClockTime = 31 s

forces forcesFish write:
    Sum of forces
        Total    : (0.388235 0.0133638 -0.00242045)
        Pressure : (0.284834 0.0134219 -0.00258486)
        Viscous  : (0.103401 -5.81278e-05 0.000164412)
    Sum of moments
        Total    : (0.000111748 0.0004256 0.00848197)
        Pressure : (0.000116487 0.000503272 0.00799732)
        Viscous  : (-4.73909e-06 -7.76719e-05 0.000484645)
    writing force and moment files.

Time = 33

smoothSolver:  Solving for Ux, Initial residual = 0.000166654, Final residual = 3.7599e-06, No Iterations 2
smoothSolver:  Solving for Uy, Initial residual = 0.00169124, Final residual = 4.29171e-05, No Iterations 2
smoothSolver:  Solving for Uz, Initial residual = 0.00464212, Final residual = 0.000101854, No Iterations 2
GAMG:  Solving for p, Initial residual = 0.00851813, Final residual = 0.000487055, No Iterations 2
time step continuity errors : sum local = 1.0258e-05, global = 3.14961e-06, cumulative = 8.28469e-06
smoothSolver:  Solving for omega, Initial residual = 3.61594e-05, Final residual = 3.41371e-06, No Iterations 1
smoothSolver:  Solving for k, Initial residual = 0.0048478, Final residual = 0.000435382, No Iterations 1
ExecutionTime = 31.54 s  ClockTime = 31 s

forces forcesFish write:
    Sum of forces
        Total    : (0.384825 0.0147829 -0.00166207)
        Pressure : (0.281941 0.014839 -0.00182564)
        Viscous  : (0.102885 -5.61245e-05 0.000163578)
    Sum of moments
        Total    : (9.89544e-05 0.000366221 0.00853118)
        Pressure : (0.000103699 0.000443812 0.00804691)
        Viscous  : (-4.74429e-06 -7.75906e-05 0.000484263)
    writing force and moment files.

Time = 34

smoothSolver:  Solving for Ux, Initial residual = 0.000149888, Final residual = 3.53935e-06, No Iterations 2
smoothSolver:  Solving for Uy, Initial residual = 0.00157724, Final residual = 3.93099e-05, No Iterations 2
smoothSolver:  Solving for Uz, Initial residual = 0.00430713, Final residual = 9.1708e-05, No Iterations 2
GAMG:  Solving for p, Initial residual = 0.00779602, Final residual = 0.000432594, No Iterations 2
time step continuity errors : sum local = 9.18062e-06, global = 2.82403e-06, cumulative = 1.11087e-05
smoothSolver:  Solving for omega, Initial residual = 3.21366e-05, Final residual = 3.08756e-06, No Iterations 1
smoothSolver:  Solving for k, Initial residual = 0.00449732, Final residual = 0.000402696, No Iterations 1
ExecutionTime = 32.45 s  ClockTime = 32 s

forces forcesFish write:
    Sum of forces
        Total    : (0.38268 0.0150832 -0.00160765)
        Pressure : (0.280276 0.0151383 -0.0017697)
        Viscous  : (0.102403 -5.50983e-05 0.00016205)
    Sum of moments
        Total    : (9.18555e-05 0.000440703 0.00846076)
        Pressure : (9.66032e-05 0.000518068 0.00797662)
        Viscous  : (-4.74771e-06 -7.73647e-05 0.000484141)
    writing force and moment files.

Time = 35

smoothSolver:  Solving for Ux, Initial residual = 0.000128831, Final residual = 3.29838e-06, No Iterations 2
smoothSolver:  Solving for Uy, Initial residual = 0.00145617, Final residual = 3.64937e-05, No Iterations 2
smoothSolver:  Solving for Uz, Initial residual = 0.00398279, Final residual = 8.70441e-05, No Iterations 2
GAMG:  Solving for p, Initial residual = 0.00711873, Final residual = 0.000378368, No Iterations 2
time step continuity errors : sum local = 8.08528e-06, global = 2.2212e-06, cumulative = 1.33299e-05
smoothSolver:  Solving for omega, Initial residual = 2.84907e-05, Final residual = 2.79027e-06, No Iterations 1
smoothSolver:  Solving for k, Initial residual = 0.00416238, Final residual = 0.000371359, No Iterations 1
ExecutionTime = 33.36 s  ClockTime = 33 s

forces forcesFish write:
    Sum of forces
        Total    : (0.381546 0.0141674 -0.00219668)
        Pressure : (0.279598 0.0142207 -0.00235699)
        Viscous  : (0.101948 -5.3362e-05 0.000160309)
    Sum of moments
        Total    : (9.11291e-05 0.000624567 0.0082504)
        Pressure : (9.58865e-05 0.000701609 0.00776601)
        Viscous  : (-4.75735e-06 -7.70422e-05 0.000484386)
    writing force and moment files.

Time = 36

smoothSolver:  Solving for Ux, Initial residual = 0.000111136, Final residual = 3.05063e-06, No Iterations 2
smoothSolver:  Solving for Uy, Initial residual = 0.00133448, Final residual = 3.37676e-05, No Iterations 2
smoothSolver:  Solving for Uz, Initial residual = 0.00366133, Final residual = 8.27541e-05, No Iterations 2
GAMG:  Solving for p, Initial residual = 0.00650592, Final residual = 0.000325131, No Iterations 2
time step continuity errors : sum local = 6.98315e-06, global = 2.02492e-06, cumulative = 1.53548e-05
smoothSolver:  Solving for omega, Initial residual = 2.51892e-05, Final residual = 3.96063e-07, No Iterations 2
smoothSolver:  Solving for k, Initial residual = 0.00383631, Final residual = 0.000340885, No Iterations 1
ExecutionTime = 34.33 s  ClockTime = 34 s

forces forcesFish write:
    Sum of forces
        Total    : (0.381014 0.0123284 -0.00317555)
        Pressure : (0.279499 0.012378 -0.00333412)
        Viscous  : (0.101515 -4.95544e-05 0.00015857)
    Sum of moments
        Total    : (9.54553e-05 0.000859493 0.00793113)
        Pressure : (0.000100229 0.000936184 0.00744607)
        Viscous  : (-4.77343e-06 -7.66908e-05 0.000485061)
    writing force and moment files.

Time = 37

smoothSolver:  Solving for Ux, Initial residual = 0.000104771, Final residual = 2.86569e-06, No Iterations 2
smoothSolver:  Solving for Uy, Initial residual = 0.00121414, Final residual = 3.13221e-05, No Iterations 2
smoothSolver:  Solving for Uz, Initial residual = 0.00334344, Final residual = 7.62684e-05, No Iterations 2
GAMG:  Solving for p, Initial residual = 0.00597776, Final residual = 0.000280532, No Iterations 2
time step continuity errors : sum local = 6.03954e-06, global = 1.94892e-06, cumulative = 1.73038e-05
smoothSolver:  Solving for omega, Initial residual = 2.17641e-05, Final residual = 3.55078e-07, No Iterations 2
smoothSolver:  Solving for k, Initial residual = 0.00352421, Final residual = 0.000311897, No Iterations 1
ExecutionTime = 35.18 s  ClockTime = 35 s

forces forcesFish write:
    Sum of forces
        Total    : (0.380728 0.0100557 -0.00422547)
        Pressure : (0.27963 0.0100988 -0.00438243)
        Viscous  : (0.101098 -4.30956e-05 0.000156957)
    Sum of moments
        Total    : (0.000102392 0.00108378 0.0075585)
        Pressure : (0.000107184 0.00116015 0.00707229)
        Viscous  : (-4.7922e-06 -7.6362e-05 0.000486212)
    writing force and moment files.

Time = 38

smoothSolver:  Solving for Ux, Initial residual = 0.000103915, Final residual = 2.71798e-06, No Iterations 2
smoothSolver:  Solving for Uy, Initial residual = 0.00110401, Final residual = 2.90606e-05, No Iterations 2
smoothSolver:  Solving for Uz, Initial residual = 0.00303776, Final residual = 6.89943e-05, No Iterations 2
GAMG:  Solving for p, Initial residual = 0.00549126, Final residual = 0.000261244, No Iterations 2
time step continuity errors : sum local = 5.62583e-06, global = 1.61341e-06, cumulative = 1.89172e-05
smoothSolver:  Solving for omega, Initial residual = 1.87821e-05, Final residual = 3.18406e-07, No Iterations 2
smoothSolver:  Solving for k, Initial residual = 0.00322375, Final residual = 0.000284081, No Iterations 1
ExecutionTime = 36.21 s  ClockTime = 36 s

forces forcesFish write:
    Sum of forces
        Total    : (0.380419 0.0077615 -0.00513767)
        Pressure : (0.27972 0.00779547 -0.00529326)
        Viscous  : (0.100698 -3.39742e-05 0.000155594)
    Sum of moments
        Total    : (0.000109978 0.00126174 0.00717798)
        Pressure : (0.000114791 0.00133782 0.00669017)
        Viscous  : (-4.81323e-06 -7.60742e-05 0.000487807)
    writing force and moment files.

Time = 39

smoothSolver:  Solving for Ux, Initial residual = 0.000101843, Final residual = 2.57105e-06, No Iterations 2
smoothSolver:  Solving for Uy, Initial residual = 0.00101462, Final residual = 2.72408e-05, No Iterations 2
smoothSolver:  Solving for Uz, Initial residual = 0.00277942, Final residual = 6.31433e-05, No Iterations 2
GAMG:  Solving for p, Initial residual = 0.00505266, Final residual = 0.000260606, No Iterations 2
time step continuity errors : sum local = 5.6078e-06, global = 1.09402e-06, cumulative = 2.00112e-05
smoothSolver:  Solving for omega, Initial residual = 1.61854e-05, Final residual = 2.86655e-07, No Iterations 2
smoothSolver:  Solving for k, Initial residual = 0.00293605, Final residual = 0.000257615, No Iterations 1
ExecutionTime = 37.12 s  ClockTime = 37 s

forces forcesFish write:
    Sum of forces
        Total    : (0.379909 0.00571603 -0.00581245)
        Pressure : (0.279595 0.00573882 -0.00596687)
        Viscous  : (0.100314 -2.27948e-05 0.000154419)
    Sum of moments
        Total    : (0.000116937 0.001379 0.00682004)
        Pressure : (0.000121771 0.00145482 0.0063303)
        Viscous  : (-4.83396e-06 -7.58194e-05 0.000489736)
    writing force and moment files.

Time = 40

smoothSolver:  Solving for Ux, Initial residual = 9.72608e-05, Final residual = 2.41719e-06, No Iterations 2
smoothSolver:  Solving for Uy, Initial residual = 0.000952679, Final residual = 2.60195e-05, No Iterations 2
smoothSolver:  Solving for Uz, Initial residual = 0.00259722, Final residual = 5.99761e-05, No Iterations 2
GAMG:  Solving for p, Initial residual = 0.00465707, Final residual = 0.000264567, No Iterations 2
time step continuity errors : sum local = 5.68811e-06, global = 5.73311e-07, cumulative = 2.05845e-05
smoothSolver:  Solving for omega, Initial residual = 1.39321e-05, Final residual = 2.59332e-07, No Iterations 2
smoothSolver:  Solving for k, Initial residual = 0.00265981, Final residual = 0.000232449, No Iterations 1
ExecutionTime = 38.05 s  ClockTime = 38 s

forces forcesFish write:
    Sum of forces
        Total    : (0.379136 0.00407158 -0.00621159)
        Pressure : (0.279188 0.0040823 -0.0063651)
        Viscous  : (0.0999477 -1.07181e-05 0.000153513)
    Sum of moments
        Total    : (0.000122383 0.00143295 0.00650444)
        Pressure : (0.000127235 0.00150853 0.00601263)
        Viscous  : (-4.85218e-06 -7.55801e-05 0.000491812)
    writing force and moment files.

Time = 41

smoothSolver:  Solving for Ux, Initial residual = 9.07082e-05, Final residual = 2.2597e-06, No Iterations 2
smoothSolver:  Solving for Uy, Initial residual = 0.000915595, Final residual = 2.51217e-05, No Iterations 2
smoothSolver:  Solving for Uz, Initial residual = 0.00246718, Final residual = 5.82018e-05, No Iterations 2
GAMG:  Solving for p, Initial residual = 0.00431622, Final residual = 0.000256265, No Iterations 2
time step continuity errors : sum local = 5.50766e-06, global = 1.85076e-07, cumulative = 2.07696e-05
smoothSolver:  Solving for omega, Initial residual = 1.19869e-05, Final residual = 2.35909e-07, No Iterations 2
smoothSolver:  Solving for k, Initial residual = 0.00239693, Final residual = 0.000208793, No Iterations 1
ExecutionTime = 38.98 s  ClockTime = 39 s

forces forcesFish write:
    Sum of forces
        Total    : (0.378142 0.00287758 -0.00633911)
        Pressure : (0.278542 0.00287635 -0.00649191)
        Viscous  : (0.0996003 1.22823e-06 0.000152793)
    Sum of moments
        Total    : (0.000125766 0.00142943 0.0062409)
        Pressure : (0.00013063 0.00150475 0.00574703)
        Viscous  : (-4.86379e-06 -7.53188e-05 0.000493872)
    writing force and moment files.

Time = 42

smoothSolver:  Solving for Ux, Initial residual = 8.35723e-05, Final residual = 2.10619e-06, No Iterations 2
smoothSolver:  Solving for Uy, Initial residual = 0.000890523, Final residual = 2.42547e-05, No Iterations 2
smoothSolver:  Solving for Uz, Initial residual = 0.00234853, Final residual = 5.60938e-05, No Iterations 2
GAMG:  Solving for p, Initial residual = 0.00403274, Final residual = 0.000234503, No Iterations 2
time step continuity errors : sum local = 5.04171e-06, global = -1.51123e-07, cumulative = 2.06185e-05
smoothSolver:  Solving for omega, Initial residual = 1.03192e-05, Final residual = 2.15996e-07, No Iterations 2
smoothSolver:  Solving for k, Initial residual = 0.00214661, Final residual = 0.000186593, No Iterations 1
ExecutionTime = 39.94 s  ClockTime = 40 s

forces forcesFish write:
    Sum of forces
        Total    : (0.377034 0.00209729 -0.00623637)
        Pressure : (0.277761 0.002085 -0.00638845)
        Viscous  : (0.0992728 1.22856e-05 0.000152088)
    Sum of moments
        Total    : (0.000126927 0.00138165 0.00602951)
        Pressure : (0.000131795 0.00145669 0.00553372)
        Viscous  : (-4.86724e-06 -7.50447e-05 0.00049579)
    writing force and moment files.

Time = 43

smoothSolver:  Solving for Ux, Initial residual = 7.65775e-05, Final residual = 1.96512e-06, No Iterations 2
smoothSolver:  Solving for Uy, Initial residual = 0.000865852, Final residual = 2.33405e-05, No Iterations 2
smoothSolver:  Solving for Uz, Initial residual = 0.00222581, Final residual = 5.30027e-05, No Iterations 2
GAMG:  Solving for p, Initial residual = 0.00376918, Final residual = 0.000210967, No Iterations 2
time step continuity errors : sum local = 4.54062e-06, global = -4.31961e-07, cumulative = 2.01865e-05
smoothSolver:  Solving for omega, Initial residual = 8.90011e-06, Final residual = 1.9906e-07, No Iterations 2
smoothSolver:  Solving for k, Initial residual = 0.00191122, Final residual = 0.000166049, No Iterations 1
ExecutionTime = 40.9 s  ClockTime = 41 s

forces forcesFish write:
    Sum of forces
        Total    : (0.375931 0.00163685 -0.00598069)
        Pressure : (0.276966 0.00161459 -0.00613205)
        Viscous  : (0.0989654 2.22519e-05 0.000151355)
    Sum of moments
        Total    : (0.000126169 0.00130951 0.00586398)
        Pressure : (0.000131034 0.00138426 0.00536639)
        Viscous  : (-4.86502e-06 -7.47561e-05 0.000497593)
    writing force and moment files.

Time = 44

smoothSolver:  Solving for Ux, Initial residual = 7.19392e-05, Final residual = 1.84277e-06, No Iterations 2
smoothSolver:  Solving for Uy, Initial residual = 0.000837143, Final residual = 2.23586e-05, No Iterations 2
smoothSolver:  Solving for Uz, Initial residual = 0.00209827, Final residual = 4.90619e-05, No Iterations 2
GAMG:  Solving for p, Initial residual = 0.00352152, Final residual = 0.00018451, No Iterations 2
time step continuity errors : sum local = 3.97706e-06, global = -7.0617e-07, cumulative = 1.94803e-05
smoothSolver:  Solving for omega, Initial residual = 7.70264e-06, Final residual = 1.84533e-07, No Iterations 2
smoothSolver:  Solving for k, Initial residual = 0.00169043, Final residual = 0.000147095, No Iterations 1
ExecutionTime = 41.9 s  ClockTime = 42 s

forces forcesFish write:
    Sum of forces
        Total    : (0.374905 0.00133724 -0.00566417)
        Pressure : (0.276228 0.00130659 -0.0058147)
        Viscous  : (0.0986777 3.06504e-05 0.000150536)
    Sum of moments
        Total    : (0.000124123 0.00123316 0.00572476)
        Pressure : (0.00012898 0.00130761 0.00522562)
        Viscous  : (-4.85611e-06 -7.44486e-05 0.000499142)
    writing force and moment files.

Time = 45

smoothSolver:  Solving for Ux, Initial residual = 7.0381e-05, Final residual = 1.74156e-06, No Iterations 2
smoothSolver:  Solving for Uy, Initial residual = 0.000804193, Final residual = 2.135e-05, No Iterations 2
smoothSolver:  Solving for Uz, Initial residual = 0.00195801, Final residual = 4.47229e-05, No Iterations 2
GAMG:  Solving for p, Initial residual = 0.00328326, Final residual = 0.000156315, No Iterations 2
time step continuity errors : sum local = 3.37478e-06, global = -8.5369e-07, cumulative = 1.86266e-05
smoothSolver:  Solving for omega, Initial residual = 6.69822e-06, Final residual = 1.71997e-07, No Iterations 2
smoothSolver:  Solving for k, Initial residual = 0.00148609, Final residual = 0.000129837, No Iterations 1
ExecutionTime = 42.79 s  ClockTime = 43 s

forces forcesFish write:
    Sum of forces
        Total    : (0.373992 0.00103633 -0.00535616)
        Pressure : (0.275582 0.000998772 -0.00550575)
        Viscous  : (0.0984094 3.7558e-05 0.000149588)
    Sum of moments
        Total    : (0.000121395 0.00116614 0.00558746)
        Pressure : (0.000126238 0.00124025 0.00508707)
        Viscous  : (-4.8435e-06 -7.41174e-05 0.00050039)
    writing force and moment files.

Time = 46

smoothSolver:  Solving for Ux, Initial residual = 6.94534e-05, Final residual = 1.65389e-06, No Iterations 2
smoothSolver:  Solving for Uy, Initial residual = 0.000775546, Final residual = 2.0427e-05, No Iterations 2
smoothSolver:  Solving for Uz, Initial residual = 0.00181355, Final residual = 4.05161e-05, No Iterations 2
GAMG:  Solving for p, Initial residual = 0.00305536, Final residual = 0.000132542, No Iterations 2
time step continuity errors : sum local = 2.86574e-06, global = -8.38645e-07, cumulative = 1.7788e-05
smoothSolver:  Solving for omega, Initial residual = 5.85962e-06, Final residual = 1.61167e-07, No Iterations 2
smoothSolver:  Solving for k, Initial residual = 0.00129846, Final residual = 0.00011423, No Iterations 1
ExecutionTime = 43.71 s  ClockTime = 44 s

forces forcesFish write:
    Sum of forces
        Total    : (0.373208 0.000604227 -0.00509334)
        Pressure : (0.275048 0.000560911 -0.00524183)
        Viscous  : (0.0981599 4.3316e-05 0.000148492)
    Sum of moments
        Total    : (0.000118415 0.00111461 0.00542883)
        Pressure : (0.000123244 0.00118835 0.00492748)
        Viscous  : (-4.82852e-06 -7.37473e-05 0.000501358)
    writing force and moment files.

Time = 47

smoothSolver:  Solving for Ux, Initial residual = 6.73287e-05, Final residual = 1.56705e-06, No Iterations 2
smoothSolver:  Solving for Uy, Initial residual = 0.000753198, Final residual = 1.95786e-05, No Iterations 2
smoothSolver:  Solving for Uz, Initial residual = 0.00169503, Final residual = 3.69891e-05, No Iterations 2
GAMG:  Solving for p, Initial residual = 0.00284423, Final residual = 0.000128138, No Iterations 2
time step continuity errors : sum local = 2.77327e-06, global = -7.05718e-07, cumulative = 1.70823e-05
smoothSolver:  Solving for omega, Initial residual = 5.16032e-06, Final residual = 1.51672e-07, No Iterations 2
smoothSolver:  Solving for k, Initial residual = 0.0011278, Final residual = 0.00010022, No Iterations 1
ExecutionTime = 44.56 s  ClockTime = 44 s

forces forcesFish write:
    Sum of forces
        Total    : (0.372558 -3.58103e-05 -0.00489631)
        Pressure : (0.27463 -8.40229e-05 -0.00504359)
        Viscous  : (0.097928 4.82126e-05 0.000147289)
    Sum of moments
        Total    : (0.000115544 0.00108158 0.00523346)
        Pressure : (0.000120356 0.00115492 0.00473136)
        Viscous  : (-4.81172e-06 -7.3341e-05 0.000502099)
    writing force and moment files.

Time = 48

smoothSolver:  Solving for Ux, Initial residual = 6.29278e-05, Final residual = 1.4724e-06, No Iterations 2
smoothSolver:  Solving for Uy, Initial residual = 0.000733178, Final residual = 1.87412e-05, No Iterations 2
smoothSolver:  Solving for Uz, Initial residual = 0.00161921, Final residual = 3.44894e-05, No Iterations 2
GAMG:  Solving for p, Initial residual = 0.00265572, Final residual = 0.000123769, No Iterations 2
time step continuity errors : sum local = 2.6791e-06, global = -6.25408e-07, cumulative = 1.64569e-05
smoothSolver:  Solving for omega, Initial residual = 4.57837e-06, Final residual = 1.43145e-07, No Iterations 2
smoothSolver:  Solving for k, Initial residual = 0.000974458, Final residual = 8.77666e-05, No Iterations 1
ExecutionTime = 45.39 s  ClockTime = 45 s

forces forcesFish write:
    Sum of forces
        Total    : (0.37201 -0.000838247 -0.00479218)
        Pressure : (0.274297 -0.00089085 -0.00493816)
        Viscous  : (0.0977125 5.26036e-05 0.000145978)
    Sum of moments
        Total    : (0.000113274 0.00107078 0.00501396)
        Pressure : (0.000118068 0.00114368 0.00451129)
        Viscous  : (-4.79354e-06 -7.28976e-05 0.000502671)
    writing force and moment files.

Time = 49

smoothSolver:  Solving for Ux, Initial residual = 5.74337e-05, Final residual = 1.3744e-06, No Iterations 2
smoothSolver:  Solving for Uy, Initial residual = 0.000711925, Final residual = 1.79056e-05, No Iterations 2
smoothSolver:  Solving for Uz, Initial residual = 0.00155558, Final residual = 3.26581e-05, No Iterations 2
GAMG:  Solving for p, Initial residual = 0.00248155, Final residual = 0.000112485, No Iterations 2
time step continuity errors : sum local = 2.4336e-06, global = -5.84361e-07, cumulative = 1.58725e-05
smoothSolver:  Solving for omega, Initial residual = 4.0948e-06, Final residual = 1.35403e-07, No Iterations 2
smoothSolver:  Solving for k, Initial residual = 0.000837776, Final residual = 7.67429e-05, No Iterations 1
ExecutionTime = 46.24 s  ClockTime = 46 s

forces forcesFish write:
    Sum of forces
        Total    : (0.371511 -0.00166573 -0.00478499)
        Pressure : (0.273999 -0.00172249 -0.00492963)
        Viscous  : (0.0975123 5.67626e-05 0.000144637)
    Sum of moments
        Total    : (0.000111914 0.00108032 0.0048021)
        Pressure : (0.000116689 0.00115275 0.00429899)
        Viscous  : (-4.77477e-06 -7.24252e-05 0.000503114)
    writing force and moment files.

Time = 50

smoothSolver:  Solving for Ux, Initial residual = 5.31642e-05, Final residual = 1.28638e-06, No Iterations 2
smoothSolver:  Solving for Uy, Initial residual = 0.000687457, Final residual = 1.70386e-05, No Iterations 2
smoothSolver:  Solving for Uz, Initial residual = 0.00148155, Final residual = 3.11723e-05, No Iterations 2
GAMG:  Solving for p, Initial residual = 0.00231893, Final residual = 0.000106314, No Iterations 2
time step continuity errors : sum local = 2.29904e-06, global = -4.28839e-07, cumulative = 1.54437e-05
smoothSolver:  Solving for omega, Initial residual = 3.69397e-06, Final residual = 1.28312e-07, No Iterations 2
smoothSolver:  Solving for k, Initial residual = 0.000717379, Final residual = 6.70612e-05, No Iterations 1
ExecutionTime = 47.1 s  ClockTime = 47 s

forces forcesFish write:
    Sum of forces
        Total    : (0.371028 -0.00241878 -0.00484221)
        Pressure : (0.273702 -0.00247951 -0.0049855)
        Viscous  : (0.0973266 6.07359e-05 0.000143292)
    Sum of moments
        Total    : (0.000111361 0.00110146 0.00461622)
        Pressure : (0.000116118 0.00117341 0.00411277)
        Viscous  : (-4.7562e-06 -7.19492e-05 0.000503456)
    writing force and moment files.

Time = 51

smoothSolver:  Solving for Ux, Initial residual = 5.00243e-05, Final residual = 1.20971e-06, No Iterations 2
smoothSolver:  Solving for Uy, Initial residual = 0.000661038, Final residual = 1.61616e-05, No Iterations 2
smoothSolver:  Solving for Uz, Initial residual = 0.00139906, Final residual = 2.98215e-05, No Iterations 2
GAMG:  Solving for p, Initial residual = 0.00217145, Final residual = 0.000106712, No Iterations 2
time step continuity errors : sum local = 2.30736e-06, global = -1.93924e-07, cumulative = 1.52497e-05
smoothSolver:  Solving for omega, Initial residual = 3.35876e-06, Final residual = 1.21789e-07, No Iterations 2
smoothSolver:  Solving for k, Initial residual = 0.000612385, Final residual = 5.8606e-05, No Iterations 1
ExecutionTime = 47.97 s  ClockTime = 48 s

forces forcesFish write:
    Sum of forces
        Total    : (0.37055 -0.00307751 -0.0049259)
        Pressure : (0.273395 -0.00314199 -0.00506786)
        Viscous  : (0.0971543 6.44738e-05 0.000141959)
    Sum of moments
        Total    : (0.00011135 0.00112574 0.00445433)
        Pressure : (0.000116088 0.00119721 0.00395064)
        Viscous  : (-4.73773e-06 -7.14778e-05 0.000503692)
    writing force and moment files.

Time = 52

smoothSolver:  Solving for Ux, Initial residual = 4.78792e-05, Final residual = 1.14052e-06, No Iterations 2
smoothSolver:  Solving for Uy, Initial residual = 0.000636166, Final residual = 1.53526e-05, No Iterations 2
smoothSolver:  Solving for Uz, Initial residual = 0.00131771, Final residual = 2.86294e-05, No Iterations 2
GAMG:  Solving for p, Initial residual = 0.00203528, Final residual = 0.000102829, No Iterations 2
time step continuity errors : sum local = 2.22364e-06, global = 4.32446e-08, cumulative = 1.5293e-05
smoothSolver:  Solving for omega, Initial residual = 3.07529e-06, Final residual = 1.15701e-07, No Iterations 2
smoothSolver:  Solving for k, Initial residual = 0.00052146, Final residual = 5.12362e-05, No Iterations 1
ExecutionTime = 48.84 s  ClockTime = 49 s

forces forcesFish write:
    Sum of forces
        Total    : (0.370069 -0.00366844 -0.00501205)
        Pressure : (0.273074 -0.00373625 -0.00515268)
        Viscous  : (0.0969948 6.78132e-05 0.000140629)
    Sum of moments
        Total    : (0.000111655 0.00114832 0.00430496)
        Pressure : (0.000116374 0.00121932 0.00380118)
        Viscous  : (-4.7199e-06 -7.09997e-05 0.000503781)
    writing force and moment files.

Time = 53

smoothSolver:  Solving for Ux, Initial residual = 4.66372e-05, Final residual = 1.07809e-06, No Iterations 2
smoothSolver:  Solving for Uy, Initial residual = 0.000614726, Final residual = 1.46537e-05, No Iterations 2
smoothSolver:  Solving for Uz, Initial residual = 0.00124804, Final residual = 2.75997e-05, No Iterations 2
GAMG:  Solving for p, Initial residual = 0.00190519, Final residual = 9.37055e-05, No Iterations 2
time step continuity errors : sum local = 2.02676e-06, global = 2.7819e-07, cumulative = 1.55712e-05
smoothSolver:  Solving for omega, Initial residual = 2.83355e-06, Final residual = 1.09944e-07, No Iterations 2
smoothSolver:  Solving for k, Initial residual = 0.000443396, Final residual = 7.8553e-06, No Iterations 2
ExecutionTime = 49.72 s  ClockTime = 50 s

forces forcesFish write:
    Sum of forces
        Total    : (0.369566 -0.00421617 -0.0050877)
        Pressure : (0.272736 -0.00428611 -0.005227)
        Viscous  : (0.0968292 6.99373e-05 0.000139306)
    Sum of moments
        Total    : (0.00011211 0.00116671 0.00415934)
        Pressure : (0.000116812 0.00123724 0.00365606)
        Viscous  : (-4.70158e-06 -7.05261e-05 0.00050328)
    writing force and moment files.

Time = 54

smoothSolver:  Solving for Ux, Initial residual = 4.58582e-05, Final residual = 1.02379e-06, No Iterations 2
smoothSolver:  Solving for Uy, Initial residual = 0.00059721, Final residual = 1.40499e-05, No Iterations 2
smoothSolver:  Solving for Uz, Initial residual = 0.00119547, Final residual = 2.66065e-05, No Iterations 2
GAMG:  Solving for p, Initial residual = 0.00178475, Final residual = 8.13936e-05, No Iterations 2
time step continuity errors : sum local = 1.76099e-06, global = 4.55521e-07, cumulative = 1.60267e-05
smoothSolver:  Solving for omega, Initial residual = 2.7394e-06, Final residual = 1.07743e-07, No Iterations 2
smoothSolver:  Solving for k, Initial residual = 0.000372793, Final residual = 6.92251e-06, No Iterations 2
ExecutionTime = 50.58 s  ClockTime = 50 s

forces forcesFish write:
    Sum of forces
        Total    : (0.369053 -0.00474101 -0.00514595)
        Pressure : (0.272377 -0.00481247 -0.00528399)
        Viscous  : (0.0966766 7.14633e-05 0.000138038)
    Sum of moments
        Total    : (0.000112577 0.00117967 0.00401232)
        Pressure : (0.000117261 0.00124973 0.00350967)
        Viscous  : (-4.68381e-06 -7.00664e-05 0.000502648)
    writing force and moment files.

Time = 55

smoothSolver:  Solving for Ux, Initial residual = 4.45473e-05, Final residual = 9.69318e-07, No Iterations 2
smoothSolver:  Solving for Uy, Initial residual = 0.000583167, Final residual = 1.35216e-05, No Iterations 2
smoothSolver:  Solving for Uz, Initial residual = 0.00116637, Final residual = 2.57888e-05, No Iterations 2
GAMG:  Solving for p, Initial residual = 0.00167535, Final residual = 7.23854e-05, No Iterations 2
time step continuity errors : sum local = 1.56667e-06, global = 5.10607e-07, cumulative = 1.65373e-05
smoothSolver:  Solving for omega, Initial residual = 2.61016e-06, Final residual = 1.04782e-07, No Iterations 2
smoothSolver:  Solving for k, Initial residual = 0.000313453, Final residual = 6.0784e-06, No Iterations 2
ExecutionTime = 51.46 s  ClockTime = 51 s

forces forcesFish write:
    Sum of forces
        Total    : (0.368537 -0.00527585 -0.00518474)
        Pressure : (0.272 -0.00534811 -0.00532156)
        Viscous  : (0.0965367 7.22604e-05 0.000136825)
    Sum of moments
        Total    : (0.000112948 0.0011869 0.00385656)
        Pressure : (0.000117614 0.00125652 0.00335469)
        Viscous  : (-4.66658e-06 -6.96217e-05 0.000501867)
    writing force and moment files.

Time = 56

smoothSolver:  Solving for Ux, Initial residual = 4.2122e-05, Final residual = 9.11577e-07, No Iterations 2
smoothSolver:  Solving for Uy, Initial residual = 0.00057245, Final residual = 1.30524e-05, No Iterations 2
smoothSolver:  Solving for Uz, Initial residual = 0.00114426, Final residual = 2.50403e-05, No Iterations 2
GAMG:  Solving for p, Initial residual = 0.00157805, Final residual = 7.59564e-05, No Iterations 2
time step continuity errors : sum local = 1.64495e-06, global = 3.86598e-07, cumulative = 1.69239e-05
smoothSolver:  Solving for omega, Initial residual = 2.47253e-06, Final residual = 1.01198e-07, No Iterations 2
smoothSolver:  Solving for k, Initial residual = 0.000263813, Final residual = 5.33059e-06, No Iterations 2
ExecutionTime = 52.33 s  ClockTime = 52 s

forces forcesFish write:
    Sum of forces
        Total    : (0.36803 -0.00583604 -0.00520359)
        Pressure : (0.271621 -0.00590834 -0.00533924)
        Viscous  : (0.0964094 7.23051e-05 0.000135654)
    Sum of moments
        Total    : (0.000113134 0.00118849 0.00369007)
        Pressure : (0.000117783 0.00125767 0.00318912)
        Viscous  : (-4.64973e-06 -6.9187e-05 0.000500953)
    writing force and moment files.

Time = 57

smoothSolver:  Solving for Ux, Initial residual = 3.8402e-05, Final residual = 8.47725e-07, No Iterations 2
smoothSolver:  Solving for Uy, Initial residual = 0.000564053, Final residual = 1.26291e-05, No Iterations 2
smoothSolver:  Solving for Uz, Initial residual = 0.00111957, Final residual = 2.42781e-05, No Iterations 2
GAMG:  Solving for p, Initial residual = 0.00148965, Final residual = 7.66731e-05, No Iterations 2
time step continuity errors : sum local = 1.66223e-06, global = 2.68145e-07, cumulative = 1.71921e-05
smoothSolver:  Solving for omega, Initial residual = 2.33441e-06, Final residual = 9.70983e-08, No Iterations 2
smoothSolver:  Solving for k, Initial residual = 0.000222476, Final residual = 4.67279e-06, No Iterations 2
ExecutionTime = 53.19 s  ClockTime = 53 s

forces forcesFish write:
    Sum of forces
        Total    : (0.367558 -0.00636069 -0.00520383)
        Pressure : (0.271265 -0.00643225 -0.0053384)
        Viscous  : (0.0962937 7.15574e-05 0.000134572)
    Sum of moments
        Total    : (0.000113095 0.00118545 0.00353147)
        Pressure : (0.000117729 0.00125423 0.00303158)
        Viscous  : (-4.63356e-06 -6.8782e-05 0.000499886)
    writing force and moment files.

Time = 58

smoothSolver:  Solving for Ux, Initial residual = 3.63276e-05, Final residual = 7.91731e-07, No Iterations 2
smoothSolver:  Solving for Uy, Initial residual = 0.000553417, Final residual = 1.21906e-05, No Iterations 2
smoothSolver:  Solving for Uz, Initial residual = 0.00108466, Final residual = 2.33751e-05, No Iterations 2
GAMG:  Solving for p, Initial residual = 0.00140656, Final residual = 6.8214e-05, No Iterations 2
time step continuity errors : sum local = 1.48078e-06, global = 2.83681e-07, cumulative = 1.74757e-05
smoothSolver:  Solving for omega, Initial residual = 2.19803e-06, Final residual = 9.25824e-08, No Iterations 2
smoothSolver:  Solving for k, Initial residual = 0.000188139, Final residual = 4.09443e-06, No Iterations 2
ExecutionTime = 54.02 s  ClockTime = 54 s

forces forcesFish write:
    Sum of forces
        Total    : (0.367137 -0.00679284 -0.00519175)
        Pressure : (0.270948 -0.00686289 -0.0053253)
        Viscous  : (0.096189 7.00442e-05 0.000133548)
    Sum of moments
        Total    : (0.000112872 0.00118014 0.00339798)
        Pressure : (0.000117491 0.00124854 0.0028993)
        Viscous  : (-4.61846e-06 -6.83942e-05 0.000498674)
    writing force and moment files.

Time = 59

smoothSolver:  Solving for Ux, Initial residual = 3.5205e-05, Final residual = 7.44619e-07, No Iterations 2
smoothSolver:  Solving for Uy, Initial residual = 0.000538076, Final residual = 1.16754e-05, No Iterations 2
smoothSolver:  Solving for Uz, Initial residual = 0.00103842, Final residual = 2.22694e-05, No Iterations 2
GAMG:  Solving for p, Initial residual = 0.00132748, Final residual = 5.94043e-05, No Iterations 2
time step continuity errors : sum local = 1.29088e-06, global = 2.916e-07, cumulative = 1.77673e-05
smoothSolver:  Solving for omega, Initial residual = 2.06437e-06, Final residual = 8.77664e-08, No Iterations 2
smoothSolver:  Solving for k, Initial residual = 0.000159639, Final residual = 3.58553e-06, No Iterations 2
ExecutionTime = 54.85 s  ClockTime = 55 s

forces forcesFish write:
    Sum of forces
        Total    : (0.366764 -0.00713099 -0.00517536)
        Pressure : (0.270669 -0.00719882 -0.00530799)
        Viscous  : (0.0960945 6.7828e-05 0.000132623)
    Sum of moments
        Total    : (0.000112535 0.00117475 0.00329094)
        Pressure : (0.00011714 0.00124279 0.00279361)
        Viscous  : (-4.60439e-06 -6.80377e-05 0.000497329)
    writing force and moment files.

Time = 60

smoothSolver:  Solving for Ux, Initial residual = 3.44175e-05, Final residual = 7.0232e-07, No Iterations 2
smoothSolver:  Solving for Uy, Initial residual = 0.000519272, Final residual = 1.10915e-05, No Iterations 2
smoothSolver:  Solving for Uz, Initial residual = 0.000985844, Final residual = 2.10318e-05, No Iterations 2
GAMG:  Solving for p, Initial residual = 0.00125289, Final residual = 5.54121e-05, No Iterations 2
time step continuity errors : sum local = 1.20482e-06, global = 2.09551e-07, cumulative = 1.79769e-05
smoothSolver:  Solving for omega, Initial residual = 1.93413e-06, Final residual = 8.27749e-08, No Iterations 2
smoothSolver:  Solving for k, Initial residual = 0.000135949, Final residual = 3.13763e-06, No Iterations 2
ExecutionTime = 55.67 s  ClockTime = 56 s

forces forcesFish write:
    Sum of forces
        Total    : (0.36643 -0.00741373 -0.00515949)
        Pressure : (0.27042 -0.00747869 -0.0052913)
        Viscous  : (0.0960093 6.49641e-05 0.000131804)
    Sum of moments
        Total    : (0.000112131 0.00117017 0.00319984)
        Pressure : (0.000116722 0.00123789 0.00270399)
        Viscous  : (-4.59126e-06 -6.77174e-05 0.000495852)
    writing force and moment files.

Time = 61

smoothSolver:  Solving for Ux, Initial residual = 3.37515e-05, Final residual = 6.6335e-07, No Iterations 2
smoothSolver:  Solving for Uy, Initial residual = 0.000499954, Final residual = 1.04924e-05, No Iterations 2
smoothSolver:  Solving for Uz, Initial residual = 0.000935446, Final residual = 1.97872e-05, No Iterations 2
GAMG:  Solving for p, Initial residual = 0.0011832, Final residual = 5.22562e-05, No Iterations 2
time step continuity errors : sum local = 1.13648e-06, global = 7.60055e-08, cumulative = 1.80529e-05
smoothSolver:  Solving for omega, Initial residual = 1.80768e-06, Final residual = 7.7694e-08, No Iterations 2
smoothSolver:  Solving for k, Initial residual = 0.000116222, Final residual = 2.74411e-06, No Iterations 2
ExecutionTime = 56.53 s  ClockTime = 56 s

forces forcesFish write:
    Sum of forces
        Total    : (0.366125 -0.00768082 -0.0051454)
        Pressure : (0.270192 -0.00774236 -0.00527648)
        Viscous  : (0.0959328 6.15443e-05 0.000131084)
    Sum of moments
        Total    : (0.000111679 0.00116632 0.00311325)
        Pressure : (0.000116258 0.00123376 0.00261898)
        Viscous  : (-4.57933e-06 -6.74309e-05 0.000494264)
    writing force and moment files.

Time = 62

smoothSolver:  Solving for Ux, Initial residual = 3.30126e-05, Final residual = 6.26231e-07, No Iterations 2
smoothSolver:  Solving for Uy, Initial residual = 0.000481913, Final residual = 9.9239e-06, No Iterations 2
smoothSolver:  Solving for Uz, Initial residual = 0.000892777, Final residual = 1.86662e-05, No Iterations 2
GAMG:  Solving for p, Initial residual = 0.00111652, Final residual = 4.80839e-05, No Iterations 2
time step continuity errors : sum local = 1.04581e-06, global = -7.41922e-08, cumulative = 1.79787e-05
smoothSolver:  Solving for omega, Initial residual = 1.68487e-06, Final residual = 7.259e-08, No Iterations 2
smoothSolver:  Solving for k, Initial residual = 9.97428e-05, Final residual = 2.39864e-06, No Iterations 2
ExecutionTime = 57.41 s  ClockTime = 57 s

forces forcesFish write:
    Sum of forces
        Total    : (0.365842 -0.00795135 -0.00513326)
        Pressure : (0.269978 -0.00800899 -0.00526371)
        Viscous  : (0.0958642 5.76394e-05 0.00013045)
    Sum of moments
        Total    : (0.000111203 0.00116303 0.0030251)
        Pressure : (0.000115771 0.0012302 0.00253252)
        Viscous  : (-4.56869e-06 -6.71738e-05 0.000492574)
    writing force and moment files.

Time = 63

smoothSolver:  Solving for Ux, Initial residual = 3.21281e-05, Final residual = 3.18641e-06, No Iterations 1
smoothSolver:  Solving for Uy, Initial residual = 0.000465649, Final residual = 9.41634e-06, No Iterations 2
smoothSolver:  Solving for Uz, Initial residual = 0.000864106, Final residual = 1.77339e-05, No Iterations 2
GAMG:  Solving for p, Initial residual = 0.00105092, Final residual = 4.27879e-05, No Iterations 2
time step continuity errors : sum local = 9.30603e-07, global = -1.99995e-07, cumulative = 1.77787e-05
smoothSolver:  Solving for omega, Initial residual = 1.56085e-06, Final residual = 6.74204e-08, No Iterations 2
smoothSolver:  Solving for k, Initial residual = 8.5936e-05, Final residual = 2.09557e-06, No Iterations 2
ExecutionTime = 58.27 s  ClockTime = 58 s

forces forcesFish write:
    Sum of forces
        Total    : (0.365639 -0.00822174 -0.00512465)
        Pressure : (0.269833 -0.00827507 -0.00525452)
        Viscous  : (0.0958058 5.33254e-05 0.000129876)
    Sum of moments
        Total    : (0.00011072 0.00116058 0.00293887)
        Pressure : (0.000115279 0.00122752 0.00244795)
        Viscous  : (-4.55915e-06 -6.69382e-05 0.00049092)
    writing force and moment files.

Time = 64

smoothSolver:  Solving for Ux, Initial residual = 3.10964e-05, Final residual = 3.06289e-06, No Iterations 1
smoothSolver:  Solving for Uy, Initial residual = 0.000449253, Final residual = 8.88227e-06, No Iterations 2
smoothSolver:  Solving for Uz, Initial residual = 0.000837595, Final residual = 1.67219e-05, No Iterations 2
GAMG:  Solving for p, Initial residual = 0.000990217, Final residual = 3.91603e-05, No Iterations 2
time step continuity errors : sum local = 8.51649e-07, global = -2.89347e-07, cumulative = 1.74894e-05
smoothSolver:  Solving for omega, Initial residual = 1.44422e-06, Final residual = 6.24165e-08, No Iterations 2
[...]
        Pressure : (0.000118262 0.0013205 0.00137342)
        Viscous  : (-4.6173e-06 -6.76366e-05 0.000420499)
    writing force and moment files.

Time = 143

smoothSolver:  Solving for Ux, Initial residual = 7.77219e-07, Final residual = 6.58332e-08, No Iterations 1
smoothSolver:  Solving for Uy, Initial residual = 1.0361e-05, Final residual = 1.02133e-06, No Iterations 1
smoothSolver:  Solving for Uz, Initial residual = 2.36347e-05, Final residual = 2.34292e-06, No Iterations 1
GAMG:  Solving for p, Initial residual = 3.7132e-05, Final residual = 1.86478e-06, No Iterations 2
time step continuity errors : sum local = 4.04559e-08, global = -2.07783e-08, cumulative = 1.68481e-05
smoothSolver:  Solving for omega, Initial residual = 1.09117e-08, Final residual = 1.40183e-09, No Iterations 1
smoothSolver:  Solving for k, Initial residual = 1.94636e-07, Final residual = 1.2492e-08, No Iterations 1
ExecutionTime = 130.16 s  ClockTime = 130 s

forces forcesFish write:
    Sum of forces
        Total    : (0.363708 -0.0096369 -0.00547234)
        Pressure : (0.267937 -0.00949918 -0.00560435)
        Viscous  : (0.0957705 -0.000137725 0.000132007)
    Sum of moments
        Total    : (0.000113663 0.00125553 0.00179741)
        Pressure : (0.00011828 0.00132319 0.00137689)
        Viscous  : (-4.61754e-06 -6.76607e-05 0.000420523)
    writing force and moment files.

Time = 144

smoothSolver:  Solving for Ux, Initial residual = 6.82562e-07, Final residual = 5.76286e-08, No Iterations 1
smoothSolver:  Solving for Uy, Initial residual = 9.80633e-06, Final residual = 9.68716e-07, No Iterations 1
smoothSolver:  Solving for Uz, Initial residual = 2.24841e-05, Final residual = 2.24619e-06, No Iterations 1
GAMG:  Solving for p, Initial residual = 3.5649e-05, Final residual = 1.73249e-06, No Iterations 2
time step continuity errors : sum local = 3.75853e-08, global = -1.87212e-08, cumulative = 1.68294e-05
smoothSolver:  Solving for omega, Initial residual = 1.03271e-08, Final residual = 1.32379e-09, No Iterations 1
smoothSolver:  Solving for k, Initial residual = 1.86648e-07, Final residual = 1.19185e-08, No Iterations 1
ExecutionTime = 131.58 s  ClockTime = 132 s

forces forcesFish write:
    Sum of forces
        Total    : (0.363706 -0.00962741 -0.00547964)
        Pressure : (0.267934 -0.00948981 -0.00561168)
        Viscous  : (0.0957717 -0.0001376 0.000132043)
    Sum of moments
        Total    : (0.00011368 0.00125807 0.00180089)
        Pressure : (0.000118298 0.00132575 0.00138034)
        Viscous  : (-4.61772e-06 -6.76788e-05 0.000420551)
    writing force and moment files.

Time = 145

smoothSolver:  Solving for Ux, Initial residual = 5.97033e-07, Final residual = 5.10701e-08, No Iterations 1
smoothSolver:  Solving for Uy, Initial residual = 9.29303e-06, Final residual = 9.22138e-07, No Iterations 1
smoothSolver:  Solving for Uz, Initial residual = 2.14797e-05, Final residual = 3.52366e-07, No Iterations 2
GAMG:  Solving for p, Initial residual = 3.42874e-05, Final residual = 3.40576e-06, No Iterations 1
time step continuity errors : sum local = 7.38851e-08, global = -1.84256e-08, cumulative = 1.6811e-05
smoothSolver:  Solving for omega, Initial residual = 1.0157e-08, Final residual = 1.29425e-09, No Iterations 1
smoothSolver:  Solving for k, Initial residual = 1.80092e-07, Final residual = 1.15455e-08, No Iterations 1
ExecutionTime = 132.51 s  ClockTime = 132 s

forces forcesFish write:
    Sum of forces
        Total    : (0.363708 -0.00962179 -0.00548349)
        Pressure : (0.267935 -0.0094843 -0.00561556)
        Viscous  : (0.0957728 -0.000137487 0.000132072)
    Sum of moments
        Total    : (0.000113686 0.00125946 0.001803)
        Pressure : (0.000118304 0.00132715 0.00138242)
        Viscous  : (-4.61789e-06 -6.76938e-05 0.000420576)
    writing force and moment files.

Time = 146

smoothSolver:  Solving for Ux, Initial residual = 5.55528e-07, Final residual = 4.84908e-08, No Iterations 1
smoothSolver:  Solving for Uy, Initial residual = 8.69449e-06, Final residual = 8.56359e-07, No Iterations 1
smoothSolver:  Solving for Uz, Initial residual = 1.99815e-05, Final residual = 1.98424e-06, No Iterations 1
GAMG:  Solving for p, Initial residual = 3.29201e-05, Final residual = 1.52015e-06, No Iterations 2
time step continuity errors : sum local = 3.29783e-08, global = -1.43902e-08, cumulative = 1.67966e-05
smoothSolver:  Solving for omega, Initial residual = 9.38975e-09, Final residual = 9.38975e-09, No Iterations 0
smoothSolver:  Solving for k, Initial residual = 1.75348e-07, Final residual = 1.08784e-08, No Iterations 1
ExecutionTime = 133.35 s  ClockTime = 133 s

forces forcesFish write:
    Sum of forces
        Total    : (0.363708 -0.00961294 -0.00549064)
        Pressure : (0.267934 -0.00947556 -0.00562273)
        Viscous  : (0.095774 -0.000137379 0.000132093)
    Sum of moments
        Total    : (0.000113702 0.00126196 0.00180625)
        Pressure : (0.00011832 0.00132966 0.00138565)
        Viscous  : (-4.61809e-06 -6.77055e-05 0.000420599)
    writing force and moment files.

Time = 147

smoothSolver:  Solving for Ux, Initial residual = 4.94938e-07, Final residual = 4.29049e-08, No Iterations 1
smoothSolver:  Solving for Uy, Initial residual = 8.22628e-06, Final residual = 8.1533e-07, No Iterations 1
smoothSolver:  Solving for Uz, Initial residual = 1.90806e-05, Final residual = 3.11517e-07, No Iterations 2
GAMG:  Solving for p, Initial residual = 3.14614e-05, Final residual = 3.10942e-06, No Iterations 1
time step continuity errors : sum local = 6.74557e-08, global = -1.18567e-08, cumulative = 1.67847e-05
smoothSolver:  Solving for omega, Initial residual = 1.24179e-08, Final residual = 1.53044e-09, No Iterations 1
smoothSolver:  Solving for k, Initial residual = 1.68327e-07, Final residual = 1.04873e-08, No Iterations 1
ExecutionTime = 134.23 s  ClockTime = 134 s

forces forcesFish write:
    Sum of forces
        Total    : (0.36371 -0.00960776 -0.00549445)
        Pressure : (0.267935 -0.00947049 -0.00562655)
        Viscous  : (0.095775 -0.000137274 0.0001321)
    Sum of moments
        Total    : (0.000113708 0.00126333 0.0018082)
        Pressure : (0.000118326 0.00133104 0.00138757)
        Viscous  : (-4.61824e-06 -6.77116e-05 0.000420623)
    writing force and moment files.

Time = 148

smoothSolver:  Solving for Ux, Initial residual = 4.63515e-07, Final residual = 4.10744e-08, No Iterations 1
smoothSolver:  Solving for Uy, Initial residual = 7.70258e-06, Final residual = 7.62149e-07, No Iterations 1
smoothSolver:  Solving for Uz, Initial residual = 1.77584e-05, Final residual = 1.76227e-06, No Iterations 1
GAMG:  Solving for p, Initial residual = 3.00773e-05, Final residual = 1.27865e-06, No Iterations 2
time step continuity errors : sum local = 2.7739e-08, global = -9.02748e-09, cumulative = 1.67757e-05
smoothSolver:  Solving for omega, Initial residual = 1.02458e-08, Final residual = 1.31278e-09, No Iterations 1
smoothSolver:  Solving for k, Initial residual = 1.59976e-07, Final residual = 9.82436e-09, No Iterations 1
ExecutionTime = 135.05 s  ClockTime = 135 s

forces forcesFish write:
    Sum of forces
        Total    : (0.36371 -0.00959985 -0.00550142)
        Pressure : (0.267934 -0.00946267 -0.00563353)
        Viscous  : (0.095776 -0.000137179 0.000132113)
    Sum of moments
        Total    : (0.000113723 0.00126576 0.00181112)
        Pressure : (0.000118341 0.00133348 0.00139048)
        Viscous  : (-4.61841e-06 -6.77197e-05 0.000420644)
    writing force and moment files.

Time = 149

smoothSolver:  Solving for Ux, Initial residual = 4.3189e-07, Final residual = 3.77374e-08, No Iterations 1
smoothSolver:  Solving for Uy, Initial residual = 7.28597e-06, Final residual = 7.2857e-07, No Iterations 1
smoothSolver:  Solving for Uz, Initial residual = 1.69428e-05, Final residual = 2.78605e-07, No Iterations 2
GAMG:  Solving for p, Initial residual = 2.86377e-05, Final residual = 2.74362e-06, No Iterations 1
time step continuity errors : sum local = 5.95199e-08, global = -5.37028e-09, cumulative = 1.67703e-05
smoothSolver:  Solving for omega, Initial residual = 9.32514e-09, Final residual = 9.32514e-09, No Iterations 0
smoothSolver:  Solving for k, Initial residual = 1.55554e-07, Final residual = 9.53582e-09, No Iterations 1
ExecutionTime = 135.85 s  ClockTime = 136 s

forces forcesFish write:
    Sum of forces
        Total    : (0.363712 -0.00959526 -0.0055051)
        Pressure : (0.267935 -0.00945817 -0.00563722)
        Viscous  : (0.0957769 -0.000137085 0.000132113)
    Sum of moments
        Total    : (0.000113728 0.00126708 0.00181286)
        Pressure : (0.000118347 0.0013348 0.00139219)
        Viscous  : (-4.61855e-06 -6.7723e-05 0.000420666)
    writing force and moment files.

Time = 150

smoothSolver:  Solving for Ux, Initial residual = 4.08573e-07, Final residual = 3.6572e-08, No Iterations 1
smoothSolver:  Solving for Uy, Initial residual = 6.81523e-06, Final residual = 1.18915e-07, No Iterations 2
smoothSolver:  Solving for Uz, Initial residual = 1.57389e-05, Final residual = 1.57374e-06, No Iterations 1
GAMG:  Solving for p, Initial residual = 2.74025e-05, Final residual = 2.67207e-06, No Iterations 1
time step continuity errors : sum local = 5.79679e-08, global = -2.13125e-09, cumulative = 1.67682e-05
smoothSolver:  Solving for omega, Initial residual = 1.20104e-08, Final residual = 1.4827e-09, No Iterations 1
smoothSolver:  Solving for k, Initial residual = 1.48189e-07, Final residual = 9.02788e-09, No Iterations 1
ExecutionTime = 136.66 s  ClockTime = 137 s

forces forcesFish write:
    Sum of forces
        Total    : (0.363715 -0.00959078 -0.00550884)
        Pressure : (0.267937 -0.00945381 -0.00564096)
        Viscous  : (0.0957778 -0.000136972 0.000132118)
    Sum of moments
        Total    : (0.000113733 0.00126841 0.00181456)
        Pressure : (0.000118352 0.00133614 0.00139386)
        Viscous  : (-4.61871e-06 -6.77278e-05 0.000420694)
    writing force and moment files.

Time = 151

smoothSolver:  Solving for Ux, Initial residual = 3.87265e-07, Final residual = 3.48354e-08, No Iterations 1
smoothSolver:  Solving for Uy, Initial residual = 6.32562e-06, Final residual = 6.30509e-07, No Iterations 1
smoothSolver:  Solving for Uz, Initial residual = 1.47718e-05, Final residual = 2.41665e-07, No Iterations 2
GAMG:  Solving for p, Initial residual = 2.62581e-05, Final residual = 1.0082e-06, No Iterations 2
time step continuity errors : sum local = 2.18719e-08, global = -6.79335e-11, cumulative = 1.67681e-05
smoothSolver:  Solving for omega, Initial residual = 9.68693e-09, Final residual = 9.68693e-09, No Iterations 0
smoothSolver:  Solving for k, Initial residual = 1.44257e-07, Final residual = 8.6347e-09, No Iterations 1
ExecutionTime = 137.48 s  ClockTime = 137 s

forces forcesFish write:
    Sum of forces
        Total    : (0.363715 -0.00958457 -0.00551558)
        Pressure : (0.267937 -0.00944768 -0.00564769)
        Viscous  : (0.0957787 -0.000136889 0.000132118)
    Sum of moments
        Total    : (0.000113747 0.00127075 0.00181693)
        Pressure : (0.000118366 0.00133848 0.00139621)
        Viscous  : (-4.61884e-06 -6.7731e-05 0.000420713)
    writing force and moment files.

Time = 152

smoothSolver:  Solving for Ux, Initial residual = 3.77319e-07, Final residual = 3.3181e-08, No Iterations 1
smoothSolver:  Solving for Uy, Initial residual = 5.98486e-06, Final residual = 1.05146e-07, No Iterations 2
smoothSolver:  Solving for Uz, Initial residual = 1.40647e-05, Final residual = 2.34502e-07, No Iterations 2
GAMG:  Solving for p, Initial residual = 2.50272e-05, Final residual = 2.41914e-06, No Iterations 1
time step continuity errors : sum local = 5.2481e-08, global = 3.68983e-09, cumulative = 1.67718e-05
smoothSolver:  Solving for omega, Initial residual = 1.21328e-08, Final residual = 1.50595e-09, No Iterations 1
smoothSolver:  Solving for k, Initial residual = 1.36737e-07, Final residual = 8.28908e-09, No Iterations 1
ExecutionTime = 138.28 s  ClockTime = 138 s

forces forcesFish write:
    Sum of forces
        Total    : (0.363717 -0.00958094 -0.00551901)
        Pressure : (0.267938 -0.00944415 -0.00565113)
        Viscous  : (0.0957795 -0.000136788 0.000132115)
    Sum of moments
        Total    : (0.000113751 0.00127197 0.00181834)
        Pressure : (0.00011837 0.0013397 0.0013976)
        Viscous  : (-4.61893e-06 -6.77332e-05 0.000420738)
    writing force and moment files.

Time = 153

smoothSolver:  Solving for Ux, Initial residual = 3.60017e-07, Final residual = 3.25467e-08, No Iterations 1
smoothSolver:  Solving for Uy, Initial residual = 5.54906e-06, Final residual = 9.76145e-08, No Iterations 2
smoothSolver:  Solving for Uz, Initial residual = 1.30771e-05, Final residual = 2.17334e-07, No Iterations 2
GAMG:  Solving for p, Initial residual = 2.4062e-05, Final residual = 9.51014e-07, No Iterations 2
time step continuity errors : sum local = 2.06314e-08, global = 5.37679e-09, cumulative = 1.67772e-05
smoothSolver:  Solving for omega, Initial residual = 9.6897e-09, Final residual = 9.6897e-09, No Iterations 0
smoothSolver:  Solving for k, Initial residual = 1.32905e-07, Final residual = 7.96704e-09, No Iterations 1
ExecutionTime = 139.16 s  ClockTime = 139 s

forces forcesFish write:
    Sum of forces
        Total    : (0.363717 -0.00957608 -0.00552505)
        Pressure : (0.267937 -0.00943938 -0.00565717)
        Viscous  : (0.0957803 -0.000136699 0.000132117)
    Sum of moments
        Total    : (0.000113763 0.00127406 0.00182027)
        Pressure : (0.000118382 0.0013418 0.00139951)
        Viscous  : (-4.61902e-06 -6.77371e-05 0.00042076)
    writing force and moment files.

Time = 154

smoothSolver:  Solving for Ux, Initial residual = 3.50517e-07, Final residual = 3.099e-08, No Iterations 1
smoothSolver:  Solving for Uy, Initial residual = 5.21155e-06, Final residual = 9.21267e-08, No Iterations 2
smoothSolver:  Solving for Uz, Initial residual = 1.2473e-05, Final residual = 2.11357e-07, No Iterations 2
GAMG:  Solving for p, Initial residual = 2.30081e-05, Final residual = 9.79984e-07, No Iterations 2
time step continuity errors : sum local = 2.126e-08, global = 7.49439e-09, cumulative = 1.67847e-05
smoothSolver:  Solving for omega, Initial residual = 1.18845e-08, Final residual = 1.48895e-09, No Iterations 1
smoothSolver:  Solving for k, Initial residual = 1.25892e-07, Final residual = 7.63065e-09, No Iterations 1
ExecutionTime = 140.1 s  ClockTime = 140 s

forces forcesFish write:
    Sum of forces
        Total    : (0.363716 -0.00957173 -0.00553044)
        Pressure : (0.267935 -0.00943512 -0.00566256)
        Viscous  : (0.095781 -0.000136613 0.000132115)
    Sum of moments
        Total    : (0.000113773 0.00127592 0.00182202)
        Pressure : (0.000118392 0.00134366 0.00140124)
        Viscous  : (-4.61908e-06 -6.77393e-05 0.000420781)
    writing force and moment files.

Time = 155

smoothSolver:  Solving for Ux, Initial residual = 3.39364e-07, Final residual = 3.00539e-08, No Iterations 1
smoothSolver:  Solving for Uy, Initial residual = 4.89657e-06, Final residual = 8.77724e-08, No Iterations 2
smoothSolver:  Solving for Uz, Initial residual = 1.1867e-05, Final residual = 2.0485e-07, No Iterations 2
GAMG:  Solving for p, Initial residual = 2.20559e-05, Final residual = 1.02903e-06, No Iterations 2
time step continuity errors : sum local = 2.23241e-08, global = 9.1074e-09, cumulative = 1.67938e-05
smoothSolver:  Solving for omega, Initial residual = 9.27458e-09, Final residual = 9.27458e-09, No Iterations 0
smoothSolver:  Solving for k, Initial residual = 1.21973e-07, Final residual = 7.39709e-09, No Iterations 1
ExecutionTime = 140.98 s  ClockTime = 141 s

forces forcesFish write:
    Sum of forces
        Total    : (0.363714 -0.00956773 -0.00553516)
        Pressure : (0.267932 -0.0094312 -0.00566727)
        Viscous  : (0.0957816 -0.000136537 0.000132113)
    Sum of moments
        Total    : (0.000113781 0.00127754 0.00182363)
        Pressure : (0.0001184 0.00134529 0.00140283)
        Viscous  : (-4.61911e-06 -6.77415e-05 0.000420799)
    writing force and moment files.

Time = 156

smoothSolver:  Solving for Ux, Initial residual = 3.262e-07, Final residual = 2.89429e-08, No Iterations 1
smoothSolver:  Solving for Uy, Initial residual = 4.58947e-06, Final residual = 8.29842e-08, No Iterations 2
smoothSolver:  Solving for Uz, Initial residual = 1.12448e-05, Final residual = 1.96282e-07, No Iterations 2
GAMG:  Solving for p, Initial residual = 2.11644e-05, Final residual = 1.07072e-06, No Iterations 2
time step continuity errors : sum local = 2.32285e-08, global = 1.00851e-08, cumulative = 1.68039e-05
smoothSolver:  Solving for omega, Initial residual = 1.1247e-08, Final residual = 1.42101e-09, No Iterations 1
smoothSolver:  Solving for k, Initial residual = 1.15557e-07, Final residual = 7.06913e-09, No Iterations 1
ExecutionTime = 141.91 s  ClockTime = 142 s

forces forcesFish write:
    Sum of forces
        Total    : (0.363712 -0.00956397 -0.00553928)
        Pressure : (0.26793 -0.0094275 -0.00567139)
        Viscous  : (0.0957823 -0.000136467 0.00013211)
    Sum of moments
        Total    : (0.000113787 0.00127896 0.00182515)
        Pressure : (0.000118406 0.00134671 0.00140433)
        Viscous  : (-4.61912e-06 -6.77433e-05 0.000420815)
    writing force and moment files.

Time = 157

smoothSolver:  Solving for Ux, Initial residual = 3.14137e-07, Final residual = 2.78272e-08, No Iterations 1
smoothSolver:  Solving for Uy, Initial residual = 4.29616e-06, Final residual = 7.7803e-08, No Iterations 2
smoothSolver:  Solving for Uz, Initial residual = 1.06127e-05, Final residual = 1.85882e-07, No Iterations 2
GAMG:  Solving for p, Initial residual = 2.02936e-05, Final residual = 1.0954e-06, No Iterations 2
time step continuity errors : sum local = 2.37641e-08, global = 1.03692e-08, cumulative = 1.68142e-05
smoothSolver:  Solving for omega, Initial residual = 8.77238e-09, Final residual = 8.77238e-09, No Iterations 0
smoothSolver:  Solving for k, Initial residual = 1.11817e-07, Final residual = 6.82025e-09, No Iterations 1
ExecutionTime = 142.77 s  ClockTime = 143 s

forces forcesFish write:
    Sum of forces
        Total    : (0.36371 -0.00956034 -0.00554289)
        Pressure : (0.267927 -0.00942394 -0.005675)
        Viscous  : (0.0957829 -0.000136404 0.000132106)
    Sum of moments
        Total    : (0.000113791 0.00128021 0.00182661)
        Pressure : (0.00011841 0.00134795 0.00140578)
        Viscous  : (-4.61913e-06 -6.77446e-05 0.000420829)
    writing force and moment files.

Time = 158

smoothSolver:  Solving for Ux, Initial residual = 3.09283e-07, Final residual = 2.71715e-08, No Iterations 1
smoothSolver:  Solving for Uy, Initial residual = 4.02372e-06, Final residual = 7.25434e-08, No Iterations 2
smoothSolver:  Solving for Uz, Initial residual = 9.99137e-06, Final residual = 1.74572e-07, No Iterations 2
GAMG:  Solving for p, Initial residual = 1.94329e-05, Final residual = 1.08969e-06, No Iterations 2
time step continuity errors : sum local = 2.36403e-08, global = 1.00083e-08, cumulative = 1.68242e-05
smoothSolver:  Solving for omega, Initial residual = 1.05325e-08, Final residual = 1.34445e-09, No Iterations 1
smoothSolver:  Solving for k, Initial residual = 1.05523e-07, Final residual = 6.48063e-09, No Iterations 1
ExecutionTime = 143.62 s  ClockTime = 144 s


SIMPLE solution converged in 158 iterations

forces forcesFish write:
    Sum of forces
        Total    : (0.363709 -0.00955682 -0.00554608)
        Pressure : (0.267925 -0.00942047 -0.00567818)
        Viscous  : (0.0957834 -0.000136347 0.000132101)
    Sum of moments
        Total    : (0.000113794 0.00128131 0.00182802)
        Pressure : (0.000118414 0.00134905 0.00140718)
        Viscous  : (-4.61913e-06 -6.77454e-05 0.000420842)
    writing force and moment files.

End

