/*---------------------------------------------------------------------------*\
| =========                 |                                                 |
| \\      /  F ield         | OpenFOAM: The Open Source CFD Toolbox           |
|  \\    /   O peration     | Version:  2512                                  |
|   \\  /    A nd           | Website:  www.openfoam.com                      |
|    \\/     M anipulation  |                                                 |
\*---------------------------------------------------------------------------*/
Build  : _bd2b6720-20260127 OPENFOAM=2512 version=2512
Arch   : "LSB;label=32;scalar=64"
Exec   : simpleFoam
Date   : Mar 28 2026
Time   : 17:45:37
Host   : mathias-laptop
PID    : 11356
I/O    : uncollated
Case   : /home/mat/OpenFOAM/mat-run/speed_sweep_runs/U_0p4
nProcs : 1
trapFpe: Floating point exception trapping enabled (FOAM_SIGFPE).
memory pool : not available
fileModificationChecking : Monitoring run-time modified files using timeStampMaster (fileModificationSkew 5, maxFileModificationPolls 20)
allowSystemOperations : Allowing user-supplied system call operations

// * * * * * * * * * * * * * * * * * * * * * * * * * * * * * * * * * * * * * //
Create time

Create mesh for time = 0


SIMPLE: convergence criteria
    field p	 tolerance 0.0001
    field U	 tolerance 1e-05
    field "(k|omega)"	 tolerance 1e-05

Reading field p

Reading field U

Reading/calculating face flux field phi

Selecting incompressible transport model Newtonian
Selecting turbulence model type RAS
Selecting RAS turbulence model kOmegaSST
Selecting patchDistMethod meshWave
RAS
{
    RASModel        kOmegaSST;
    turbulence      on;
    printCoeffs     on;
    alphaK1         0.85;
    alphaK2         1;
    alphaOmega1     0.5;
    alphaOmega2     0.856;
    gamma1          0.555556;
    gamma2          0.44;
    beta1           0.075;
    beta2           0.0828;
    betaStar        0.09;
    a1              0.31;
    b1              1;
    c1              10;
    F3              false;
    decayControl    false;
    kInf            0;
    omegaInf        0;
}

No MRF models present

No finite volume options present

Starting time loop

forces forcesFish:
    rho: rhoInf
    Freestream density (rhoInf) set to 1000
    Not including porosity effects

Time = 1

smoothSolver:  Solving for Ux, Initial residual = 1, Final residual = 0.0235374, No Iterations 2
smoothSolver:  Solving for Uy, Initial residual = 1, Final residual = 0.0352938, No Iterations 2
smoothSolver:  Solving for Uz, Initial residual = 1, Final residual = 0.0306584, No Iterations 2
GAMG:  Solving for p, Initial residual = 1, Final residual = 0.0546253, No Iterations 5
time step continuity errors : sum local = 6.24634e-06, global = -6.91611e-07, cumulative = -6.91611e-07
smoothSolver:  Solving for omega, Initial residual = 0.0115133, Final residual = 0.000577072, No Iterations 1
bounding omega, min: -19.0025 max: 11487.6 average: 123.866
smoothSolver:  Solving for k, Initial residual = 1, Final residual = 0.0545241, No Iterations 1
ExecutionTime = 1.94 s  ClockTime = 2 s

forces forcesFish write:
    Sum of forces
        Total    : (0.480299 0.0663729 -8.74921e-05)
        Pressure : (0.397433 0.0662626 -8.68909e-05)
        Viscous  : (0.0828662 0.000110251 -6.01134e-07)
    Sum of moments
        Total    : (-7.95666e-05 0.000213419 0.029206)
        Pressure : (-7.94434e-05 0.00021403 0.0291141)
        Viscous  : (-1.23168e-07 -6.11053e-07 9.19081e-05)
    writing force and moment files.

Time = 2

smoothSolver:  Solving for Ux, Initial residual = 0.0175876, Final residual = 0.000997935, No Iterations 2
smoothSolver:  Solving for Uy, Initial residual = 0.099917, Final residual = 0.00833669, No Iterations 2
smoothSolver:  Solving for Uz, Initial residual = 0.362557, Final residual = 0.0317764, No Iterations 2
GAMG:  Solving for p, Initial residual = 0.182181, Final residual = 0.0149364, No Iterations 3
time step continuity errors : sum local = 1.15148e-05, global = -7.26541e-07, cumulative = -1.41815e-06
smoothSolver:  Solving for omega, Initial residual = 0.00613844, Final residual = 0.000324285, No Iterations 1
smoothSolver:  Solving for k, Initial residual = 0.434641, Final residual = 0.0260083, No Iterations 1
ExecutionTime = 2.55 s  ClockTime = 3 s

forces forcesFish write:
    Sum of forces
        Total    : (0.567752 0.0851489 0.000119306)
        Pressure : (0.489298 0.0851015 0.000124962)
        Viscous  : (0.0784542 4.7359e-05 -5.65612e-06)
    Sum of moments
        Total    : (-8.9591e-05 0.000143851 0.0360753)
        Pressure : (-8.97441e-05 0.000145903 0.0360249)
        Viscous  : (1.5302e-07 -2.05146e-06 5.04266e-05)
    writing force and moment files.

Time = 3

smoothSolver:  Solving for Ux, Initial residual = 0.00412762, Final residual = 0.000241051, No Iterations 2
smoothSolver:  Solving for Uy, Initial residual = 0.045903, Final residual = 0.00375257, No Iterations 2
smoothSolver:  Solving for Uz, Initial residual = 0.211797, Final residual = 0.0181459, No Iterations 2
GAMG:  Solving for p, Initial residual = 0.388722, Final residual = 0.0362093, No Iterations 2
time step continuity errors : sum local = 2.19945e-05, global = -8.86018e-07, cumulative = -2.30417e-06
smoothSolver:  Solving for omega, Initial residual = 0.00396422, Final residual = 0.000227948, No Iterations 1
smoothSolver:  Solving for k, Initial residual = 0.256355, Final residual = 0.0163789, No Iterations 1
ExecutionTime = 3.12 s  ClockTime = 3 s

forces forcesFish write:
    Sum of forces
        Total    : (0.524053 0.0794872 -0.000661359)
        Pressure : (0.448798 0.0794901 -0.000651977)
        Viscous  : (0.0752546 -2.87478e-06 -9.38222e-06)
    Sum of moments
        Total    : (-8.14332e-05 0.000249706 0.0328355)
        Pressure : (-8.18498e-05 0.000252609 0.0328237)
        Viscous  : (4.166e-07 -2.90234e-06 1.1792e-05)
    writing force and moment files.

Time = 4

smoothSolver:  Solving for Ux, Initial residual = 0.00218, Final residual = 0.000123456, No Iterations 2
smoothSolver:  Solving for Uy, Initial residual = 0.0250996, Final residual = 0.00201014, No Iterations 2
smoothSolver:  Solving for Uz, Initial residual = 0.13078, Final residual = 0.010991, No Iterations 2
GAMG:  Solving for p, Initial residual = 0.268201, Final residual = 0.0120718, No Iterations 3
time step continuity errors : sum local = 1.49531e-05, global = -9.11182e-07, cumulative = -3.21535e-06
smoothSolver:  Solving for omega, Initial residual = 0.00276197, Final residual = 0.000168811, No Iterations 1
smoothSolver:  Solving for k, Initial residual = 0.170264, Final residual = 0.0114165, No Iterations 1
ExecutionTime = 3.72 s  ClockTime = 4 s

forces forcesFish write:
    Sum of forces
        Total    : (0.406986 0.058709 -0.00163978)
        Pressure : (0.334209 0.0587538 -0.00162993)
        Viscous  : (0.0727764 -4.4808e-05 -9.84595e-06)
    Sum of moments
        Total    : (-5.3089e-05 0.000388875 0.0236492)
        Pressure : (-5.36529e-05 0.000392324 0.0236678)
        Viscous  : (5.63976e-07 -3.4493e-06 -1.859e-05)
    writing force and moment files.

Time = 5

smoothSolver:  Solving for Ux, Initial residual = 0.00132409, Final residual = 7.18134e-05, No Iterations 2
smoothSolver:  Solving for Uy, Initial residual = 0.0138772, Final residual = 0.00108233, No Iterations 2
smoothSolver:  Solving for Uz, Initial residual = 0.0774173, Final residual = 0.00632294, No Iterations 2
GAMG:  Solving for p, Initial residual = 0.110721, Final residual = 0.00573229, No Iterations 3
time step continuity errors : sum local = 1.78088e-05, global = -7.61512e-07, cumulative = -3.97686e-06
smoothSolver:  Solving for omega, Initial residual = 0.0020223, Final residual = 0.000129244, No Iterations 1
smoothSolver:  Solving for k, Initial residual = 0.12232, Final residual = 0.00851203, No Iterations 1
ExecutionTime = 4.31 s  ClockTime = 4 s

forces forcesFish write:
    Sum of forces
        Total    : (0.269575 0.0335157 -0.0023193)
        Pressure : (0.198785 0.0335923 -0.00231175)
        Viscous  : (0.0707907 -7.65266e-05 -7.55217e-06)
    Sum of moments
        Total    : (-2.07904e-05 0.00048673 0.0129015)
        Pressure : (-2.13615e-05 0.00049022 0.0129382)
        Viscous  : (5.71134e-07 -3.49069e-06 -3.67316e-05)
    writing force and moment files.

Time = 6

smoothSolver:  Solving for Ux, Initial residual = 0.000888933, Final residual = 4.23621e-05, No Iterations 2
smoothSolver:  Solving for Uy, Initial residual = 0.00742318, Final residual = 0.000493936, No Iterations 2
smoothSolver:  Solving for Uz, Initial residual = 0.0408162, Final residual = 0.00278845, No Iterations 2
GAMG:  Solving for p, Initial residual = 0.0572768, Final residual = 0.0032058, No Iterations 3
time step continuity errors : sum local = 1.63997e-05, global = -4.4641e-07, cumulative = -4.42328e-06
smoothSolver:  Solving for omega, Initial residual = 0.00153634, Final residual = 0.000101531, No Iterations 1
smoothSolver:  Solving for k, Initial residual = 0.0928733, Final residual = 0.00665739, No Iterations 1
ExecutionTime = 4.92 s  ClockTime = 5 s

forces forcesFish write:
    Sum of forces
        Total    : (0.146419 0.0111531 -0.00234721)
        Pressure : (0.0772336 0.0112502 -0.00234322)
        Viscous  : (0.0691853 -9.71178e-05 -3.98941e-06)
    Sum of moments
        Total    : (8.77516e-06 0.000474265 0.00344959)
        Pressure : (8.29602e-06 0.000477404 0.00349245)
        Viscous  : (4.79147e-07 -3.13957e-06 -4.28576e-05)
    writing force and moment files.

Time = 7

smoothSolver:  Solving for Ux, Initial residual = 0.000724254, Final residual = 2.79012e-05, No Iterations 2
smoothSolver:  Solving for Uy, Initial residual = 0.00533081, Final residual = 0.000205102, No Iterations 2
smoothSolver:  Solving for Uz, Initial residual = 0.0317433, Final residual = 0.00127082, No Iterations 2
GAMG:  Solving for p, Initial residual = 0.0332133, Final residual = 0.00184086, No Iterations 3
time step continuity errors : sum local = 1.25225e-05, global = -5.3531e-09, cumulative = -4.42863e-06
smoothSolver:  Solving for omega, Initial residual = 0.00120196, Final residual = 8.14967e-05, No Iterations 1
smoothSolver:  Solving for k, Initial residual = 0.0734918, Final residual = 0.00539814, No Iterations 1
ExecutionTime = 5.53 s  ClockTime = 6 s

forces forcesFish write:
    Sum of forces
        Total    : (0.0573281 -0.00416875 -0.00172854)
        Pressure : (-0.0105517 -0.00405773 -0.00172848)
        Viscous  : (0.0678798 -0.000111027 -5.94359e-08)
    Sum of moments
        Total    : (3.09973e-05 0.000349856 -0.00304436)
        Pressure : (3.06763e-05 0.000352592 -0.00300291)
        Viscous  : (3.20987e-07 -2.73566e-06 -4.1453e-05)
    writing force and moment files.

Time = 8

smoothSolver:  Solving for Ux, Initial residual = 0.000688971, Final residual = 2.6091e-05, No Iterations 2
smoothSolver:  Solving for Uy, Initial residual = 0.00714159, Final residual = 0.000402106, No Iterations 2
smoothSolver:  Solving for Uz, Initial residual = 0.0593937, Final residual = 0.00391358, No Iterations 2
GAMG:  Solving for p, Initial residual = 0.0242887, Final residual = 0.00239732, No Iterations 2
time step continuity errors : sum local = 1.8722e-05, global = 2.08966e-07, cumulative = -4.21966e-06
smoothSolver:  Solving for omega, Initial residual = 0.000963137, Final residual = 6.66681e-05, No Iterations 1
smoothSolver:  Solving for k, Initial residual = 0.0600442, Final residual = 0.00450138, No Iterations 1
ExecutionTime = 6.33 s  ClockTime = 6 s

forces forcesFish write:
    Sum of forces
        Total    : (0.0127503 -0.0107188 -0.00127052)
        Pressure : (-0.0540371 -0.0106014 -0.00127316)
        Viscous  : (0.0667874 -0.000117403 2.64164e-06)
    Sum of moments
        Total    : (3.96978e-05 0.000252084 -0.00585263)
        Pressure : (3.95354e-05 0.000254237 -0.00581683)
        Viscous  : (1.62388e-07 -2.15233e-06 -3.57958e-05)
    writing force and moment files.

Time = 9

smoothSolver:  Solving for Ux, Initial residual = 0.000674803, Final residual = 2.60553e-05, No Iterations 2
smoothSolver:  Solving for Uy, Initial residual = 0.008629, Final residual = 0.000542126, No Iterations 2
smoothSolver:  Solving for Uz, Initial residual = 0.0831086, Final residual = 0.00590157, No Iterations 2
GAMG:  Solving for p, Initial residual = 0.0262516, Final residual = 0.00196731, No Iterations 2
time step continuity errors : sum local = 1.5713e-05, global = 6.56834e-07, cumulative = -3.56283e-06
smoothSolver:  Solving for omega, Initial residual = 0.000786163, Final residual = 5.53669e-05, No Iterations 1
smoothSolver:  Solving for k, Initial residual = 0.0501363, Final residual = 0.00382426, No Iterations 1
ExecutionTime = 6.92 s  ClockTime = 7 s

forces forcesFish write:
    Sum of forces
        Total    : (0.000948069 -0.0107937 -0.00042217)
        Pressure : (-0.0648963 -0.0106774 -0.000426711)
        Viscous  : (0.0658443 -0.000116317 4.54037e-06)
    Sum of moments
        Total    : (4.12544e-05 8.37423e-05 -0.0059365)
        Pressure : (4.12209e-05 8.55349e-05 -0.00590775)
        Viscous  : (3.3488e-08 -1.7926e-06 -2.87476e-05)
    writing force and moment files.

Time = 10

smoothSolver:  Solving for Ux, Initial residual = 0.000646068, Final residual = 2.44736e-05, No Iterations 2
smoothSolver:  Solving for Uy, Initial residual = 0.00884624, Final residual = 0.000563924, No Iterations 2
smoothSolver:  Solving for Uz, Initial residual = 0.0821321, Final residual = 0.00586839, No Iterations 2
GAMG:  Solving for p, Initial residual = 0.0314844, Final residual = 0.00248727, No Iterations 2
time step continuity errors : sum local = 1.89853e-05, global = 1.15385e-06, cumulative = -2.40898e-06
smoothSolver:  Solving for omega, Initial residual = 0.00065133, Final residual = 4.65789e-05, No Iterations 1
smoothSolver:  Solving for k, Initial residual = 0.0426915, Final residual = 0.00330509, No Iterations 1
ExecutionTime = 7.49 s  ClockTime = 8 s

forces forcesFish write:
    Sum of forces
        Total    : (0.0104931 -0.00688305 0.000598973)
        Pressure : (-0.054488 -0.0067766 0.000592834)
        Viscous  : (0.0649811 -0.00010645 6.13882e-06)
    Sum of moments
        Total    : (3.75874e-05 -0.000106061 -0.00430446)
        Pressure : (3.76294e-05 -0.000104154 -0.00428279)
        Viscous  : (-4.20474e-08 -1.9069e-06 -2.16765e-05)
    writing force and moment files.

Time = 11

smoothSolver:  Solving for Ux, Initial residual = 0.000589819, Final residual = 2.12937e-05, No Iterations 2
smoothSolver:  Solving for Uy, Initial residual = 0.00792774, Final residual = 0.000486143, No Iterations 2
smoothSolver:  Solving for Uz, Initial residual = 0.0667958, Final residual = 0.00458699, No Iterations 2
GAMG:  Solving for p, Initial residual = 0.0349804, Final residual = 0.00291809, No Iterations 2
time step continuity errors : sum local = 2.01353e-05, global = 1.54989e-06, cumulative = -8.59088e-07
smoothSolver:  Solving for omega, Initial residual = 0.00054624, Final residual = 3.95996e-05, No Iterations 1
smoothSolver:  Solving for k, Initial residual = 0.0368372, Final residual = 0.00288884, No Iterations 1
ExecutionTime = 8.1 s  ClockTime = 8 s

forces forcesFish write:
    Sum of forces
        Total    : (0.0328627 -0.000930966 0.00149249)
        Pressure : (-0.0312845 -0.000842728 0.00148533)
        Viscous  : (0.0641472 -8.82377e-05 7.16626e-06)
    Sum of moments
        Total    : (2.962e-05 -0.000255688 -0.00177266)
        Pressure : (2.96805e-05 -0.000253338 -0.00175735)
        Viscous  : (-6.04815e-08 -2.34956e-06 -1.53168e-05)
    writing force and moment files.

Time = 12

smoothSolver:  Solving for Ux, Initial residual = 0.000515563, Final residual = 1.72192e-05, No Iterations 2
smoothSolver:  Solving for Uy, Initial residual = 0.00644807, Final residual = 0.000336281, No Iterations 2
smoothSolver:  Solving for Uz, Initial residual = 0.0489447, Final residual = 0.00290895, No Iterations 2
GAMG:  Solving for p, Initial residual = 0.0371, Final residual = 0.00329195, No Iterations 2
time step continuity errors : sum local = 1.945e-05, global = 1.79193e-06, cumulative = 9.32838e-07
smoothSolver:  Solving for omega, Initial residual = 0.000462819, Final residual = 3.3949e-05, No Iterations 1
smoothSolver:  Solving for k, Initial residual = 0.0321822, Final residual = 0.00255236, No Iterations 1
ExecutionTime = 8.69 s  ClockTime = 9 s

forces forcesFish write:
    Sum of forces
        Total    : (0.0592712 0.0049853 0.00193533)
        Pressure : (-0.00404987 0.00504852 0.00192866)
        Viscous  : (0.0633211 -6.32204e-05 6.67603e-06)
    Sum of moments
        Total    : (1.90356e-05 -0.000302181 0.000822428)
        Pressure : (1.90551e-05 -0.000299603 0.000832219)
        Viscous  : (-1.94602e-08 -2.57767e-06 -9.79091e-06)
    writing force and moment files.

Time = 13

smoothSolver:  Solving for Ux, Initial residual = 0.000443987, Final residual = 1.35685e-05, No Iterations 2
smoothSolver:  Solving for Uy, Initial residual = 0.00542029, Final residual = 0.000208105, No Iterations 2
smoothSolver:  Solving for Uz, Initial residual = 0.035849, Final residual = 0.00145864, No Iterations 2
GAMG:  Solving for p, Initial residual = 0.0377439, Final residual = 0.00343899, No Iterations 2
time step continuity errors : sum local = 1.67786e-05, global = 1.86724e-06, cumulative = 2.80008e-06
smoothSolver:  Solving for omega, Initial residual = 0.000395614, Final residual = 2.93088e-05, No Iterations 1
smoothSolver:  Solving for k, Initial residual = 0.0283564, Final residual = 0.00227121, No Iterations 1
ExecutionTime = 9.26 s  ClockTime = 9 s

forces forcesFish write:
    Sum of forces
        Total    : (0.0828632 0.00938916 0.00183053)
        Pressure : (0.0203605 0.00942466 0.00182539)
        Viscous  : (0.0625027 -3.55015e-05 5.13162e-06)
    Sum of moments
        Total    : (7.66667e-06 -0.000238541 0.00287426)
        Pressure : (7.61013e-06 -0.000235952 0.00287957)
        Viscous  : (5.65332e-08 -2.5891e-06 -5.31266e-06)
    writing force and moment files.

Time = 14

smoothSolver:  Solving for Ux, Initial residual = 0.00038617, Final residual = 1.15462e-05, No Iterations 2
smoothSolver:  Solving for Uy, Initial residual = 0.0056791, Final residual = 0.000236494, No Iterations 2
smoothSolver:  Solving for Uz, Initial residual = 0.0388683, Final residual = 0.00173785, No Iterations 2
GAMG:  Solving for p, Initial residual = 0.0385917, Final residual = 0.00323189, No Iterations 2
time step continuity errors : sum local = 1.2986e-05, global = 1.80179e-06, cumulative = 4.60187e-06
smoothSolver:  Solving for omega, Initial residual = 0.000340588, Final residual = 2.54456e-05, No Iterations 1
smoothSolver:  Solving for k, Initial residual = 0.0251955, Final residual = 0.00203548, No Iterations 1
ExecutionTime = 9.9 s  ClockTime = 10 s

forces forcesFish write:
    Sum of forces
        Total    : (0.0996393 0.0116272 0.00123602)
        Pressure : (0.0379281 0.0116412 0.00123311)
        Viscous  : (0.0617112 -1.39912e-05 2.91475e-06)
    Sum of moments
        Total    : (-2.27616e-06 -8.17728e-05 0.00408455)
        Pressure : (-2.41972e-06 -7.9444e-05 0.00408829)
        Viscous  : (1.43558e-07 -2.32879e-06 -3.74012e-06)
    writing force and moment files.

Time = 15

smoothSolver:  Solving for Ux, Initial residual = 0.000343464, Final residual = 1.05965e-05, No Iterations 2
smoothSolver:  Solving for Uy, Initial residual = 0.00622083, Final residual = 0.000301407, No Iterations 2
smoothSolver:  Solving for Uz, Initial residual = 0.0453345, Final residual = 0.00245524, No Iterations 2
GAMG:  Solving for p, Initial residual = 0.0407679, Final residual = 0.00278417, No Iterations 2
time step continuity errors : sum local = 9.65274e-06, global = 1.64462e-06, cumulative = 6.24649e-06
smoothSolver:  Solving for omega, Initial residual = 0.000294888, Final residual = 2.2186e-05, No Iterations 1
smoothSolver:  Solving for k, Initial residual = 0.0225211, Final residual = 0.00183313, No Iterations 1
ExecutionTime = 10.51 s  ClockTime = 11 s

forces forcesFish write:
    Sum of forces
        Total    : (0.108294 0.0118386 0.00039911)
        Pressure : (0.0473328 0.0118377 0.000398264)
        Viscous  : (0.0609613 8.68111e-07 8.46352e-07)
    Sum of moments
        Total    : (-9.1088e-06 0.00011022 0.00444858)
        Pressure : (-9.32998e-06 0.000112219 0.00445248)
        Viscous  : (2.21177e-07 -1.99909e-06 -3.8923e-06)
    writing force and moment files.

Time = 16

smoothSolver:  Solving for Ux, Initial residual = 0.000309967, Final residual = 9.73753e-06, No Iterations 2
smoothSolver:  Solving for Uy, Initial residual = 0.00641804, Final residual = 0.000325554, No Iterations 2
smoothSolver:  Solving for Uz, Initial residual = 0.0434783, Final residual = 0.00245701, No Iterations 2
GAMG:  Solving for p, Initial residual = 0.0448731, Final residual = 0.00278325, No Iterations 2
time step continuity errors : sum local = 9.13906e-06, global = 1.43347e-06, cumulative = 7.67997e-06
smoothSolver:  Solving for omega, Initial residual = 0.000256494, Final residual = 1.94059e-05, No Iterations 1
smoothSolver:  Solving for k, Initial residual = 0.0202497, Final residual = 0.00165907, No Iterations 1
ExecutionTime = 11.12 s  ClockTime = 11 s

forces forcesFish write:
    Sum of forces
        Total    : (0.110101 0.0107285 -0.000452243)
        Pressure : (0.0498377 0.0107191 -0.00045138)
        Viscous  : (0.0602638 9.43101e-06 -8.62242e-07)
    Sum of moments
        Total    : (-1.23123e-05 0.000290725 0.00419319)
        Pressure : (-1.25924e-05 0.000292344 0.00419812)
        Viscous  : (2.80058e-07 -1.61937e-06 -4.93212e-06)
    writing force and moment files.

Time = 17

smoothSolver:  Solving for Ux, Initial residual = 0.000280646, Final residual = 8.74866e-06, No Iterations 2
smoothSolver:  Solving for Uy, Initial residual = 0.00610967, Final residual = 0.000300556, No Iterations 2
smoothSolver:  Solving for Uz, Initial residual = 0.0364459, Final residual = 0.00198664, No Iterations 2
GAMG:  Solving for p, Initial residual = 0.0442319, Final residual = 0.00281566, No Iterations 2
time step continuity errors : sum local = 9.56558e-06, global = 1.03527e-06, cumulative = 8.71524e-06
smoothSolver:  Solving for omega, Initial residual = 0.000223945, Final residual = 1.7017e-05, No Iterations 1
smoothSolver:  Solving for k, Initial residual = 0.0182911, Final residual = 0.0015072, No Iterations 1
ExecutionTime = 11.78 s  ClockTime = 12 s

forces forcesFish write:
    Sum of forces
        Total    : (0.10751 0.00891093 -0.0012565)
        Pressure : (0.0478871 0.00889822 -0.0012547)
        Viscous  : (0.0596233 1.27029e-05 -1.79485e-06)
    Sum of moments
        Total    : (-1.25383e-05 0.00044647 0.00356777)
        Pressure : (-1.28504e-05 0.000447795 0.00357411)
        Viscous  : (3.12063e-07 -1.32509e-06 -6.33897e-06)
    writing force and moment files.

Time = 18

smoothSolver:  Solving for Ux, Initial residual = 0.000253709, Final residual = 7.76328e-06, No Iterations 2
smoothSolver:  Solving for Uy, Initial residual = 0.00540781, Final residual = 0.000242001, No Iterations 2
smoothSolver:  Solving for Uz, Initial residual = 0.0283025, Final residual = 0.00136428, No Iterations 2
GAMG:  Solving for p, Initial residual = 0.0385858, Final residual = 0.00251599, No Iterations 2
time step continuity errors : sum local = 9.34744e-06, global = 5.29875e-07, cumulative = 9.24511e-06
smoothSolver:  Solving for omega, Initial residual = 0.000196169, Final residual = 1.49528e-05, No Iterations 1
smoothSolver:  Solving for k, Initial residual = 0.0165956, Final residual = 0.00137432, No Iterations 1
ExecutionTime = 12.36 s  ClockTime = 13 s

forces forcesFish write:
    Sum of forces
        Total    : (0.102477 0.00696095 -0.001894)
        Pressure : (0.0434384 0.00694867 -0.00189149)
        Viscous  : (0.0590388 1.2278e-05 -2.51256e-06)
    Sum of moments
        Total    : (-9.9732e-06 0.000555492 0.0027987)
        Pressure : (-1.0298e-05 0.000556455 0.0028064)
        Viscous  : (3.24786e-07 -9.63214e-07 -7.69923e-06)
    writing force and moment files.

Time = 19

smoothSolver:  Solving for Ux, Initial residual = 0.000228952, Final residual = 6.84798e-06, No Iterations 2
smoothSolver:  Solving for Uy, Initial residual = 0.00452691, Final residual = 0.00016853, No Iterations 2
smoothSolver:  Solving for Uz, Initial residual = 0.02141, Final residual = 0.000778474, No Iterations 2
GAMG:  Solving for p, Initial residual = 0.0310977, Final residual = 0.00202035, No Iterations 2
time step continuity errors : sum local = 8.4114e-06, global = 2.76346e-08, cumulative = 9.27275e-06
smoothSolver:  Solving for omega, Initial residual = 0.000172349, Final residual = 1.31666e-05, No Iterations 1
smoothSolver:  Solving for k, Initial residual = 0.0151146, Final residual = 0.00125708, No Iterations 1
ExecutionTime = 13.03 s  ClockTime = 13 s

forces forcesFish write:
    Sum of forces
        Total    : (0.0968057 0.00538464 -0.00225601)
        Pressure : (0.0383003 0.00537389 -0.00225419)
        Viscous  : (0.0585054 1.07563e-05 -1.82141e-06)
    Sum of moments
        Total    : (-5.17068e-06 0.000602082 0.00208999)
        Pressure : (-5.47293e-06 0.000603156 0.00209852)
        Viscous  : (3.02249e-07 -1.0745e-06 -8.52448e-06)
    writing force and moment files.

Time = 20

smoothSolver:  Solving for Ux, Initial residual = 0.000203984, Final residual = 5.94449e-06, No Iterations 2
smoothSolver:  Solving for Uy, Initial residual = 0.0038808, Final residual = 0.000118158, No Iterations 2
smoothSolver:  Solving for Uz, Initial residual = 0.0190182, Final residual = 0.000624814, No Iterations 2
GAMG:  Solving for p, Initial residual = 0.0241305, Final residual = 0.00153365, No Iterations 2
time step continuity errors : sum local = 7.11557e-06, global = -3.81345e-07, cumulative = 8.8914e-06
smoothSolver:  Solving for omega, Initial residual = 0.000151848, Final residual = 1.16184e-05, No Iterations 1
smoothSolver:  Solving for k, Initial residual = 0.0138122, Final residual = 0.00115297, No Iterations 1
ExecutionTime = 13.59 s  ClockTime = 14 s

forces forcesFish write:
    Sum of forces
        Total    : (0.0918146 0.00445671 -0.00231123)
        Pressure : (0.0338006 0.0044475 -0.00230968)
        Viscous  : (0.0580141 9.20885e-06 -1.55078e-06)
    Sum of moments
        Total    : (7.87201e-07 0.000586616 0.00157307)
        Pressure : (5.04863e-07 0.000587615 0.00158204)
        Viscous  : (2.82339e-07 -9.98762e-07 -8.96515e-06)
    writing force and moment files.

Time = 21

smoothSolver:  Solving for Ux, Initial residual = 0.000178188, Final residual = 5.15259e-06, No Iterations 2
smoothSolver:  Solving for Uy, Initial residual = 0.00364078, Final residual = 0.00011508, No Iterations 2
smoothSolver:  Solving for Uz, Initial residual = 0.0192311, Final residual = 0.000763015, No Iterations 2
GAMG:  Solving for p, Initial residual = 0.0195325, Final residual = 0.00121155, No Iterations 2
time step continuity errors : sum local = 6.10746e-06, global = -7.5429e-07, cumulative = 8.13711e-06
smoothSolver:  Solving for omega, Initial residual = 0.00013411, Final residual = 1.02719e-05, No Iterations 1
smoothSolver:  Solving for k, Initial residual = 0.0126607, Final residual = 0.00106004, No Iterations 1
ExecutionTime = 14.22 s  ClockTime = 14 s

forces forcesFish write:
    Sum of forces
        Total    : (0.0882188 0.0041866 -0.00211082)
        Pressure : (0.0306609 0.0041769 -0.00210997)
        Viscous  : (0.0575579 9.69291e-06 -8.48393e-07)
    Sum of moments
        Total    : (6.57551e-06 0.000524654 0.00129016)
        Pressure : (6.32314e-06 0.000525783 0.00129882)
        Viscous  : (2.52372e-07 -1.12948e-06 -8.65654e-06)
    writing force and moment files.

Time = 22

smoothSolver:  Solving for Ux, Initial residual = 0.000154222, Final residual = 4.57486e-06, No Iterations 2
smoothSolver:  Solving for Uy, Initial residual = 0.00355554, Final residual = 0.000123552, No Iterations 2
smoothSolver:  Solving for Uz, Initial residual = 0.0193911, Final residual = 0.000867343, No Iterations 2
GAMG:  Solving for p, Initial residual = 0.017164, Final residual = 0.00106747, No Iterations 2
time step continuity errors : sum local = 5.66434e-06, global = -1.08826e-06, cumulative = 7.04885e-06
smoothSolver:  Solving for omega, Initial residual = 0.000118671, Final residual = 9.09785e-06, No Iterations 1
smoothSolver:  Solving for k, Initial residual = 0.0116323, Final residual = 0.000976266, No Iterations 1
ExecutionTime = 14.8 s  ClockTime = 15 s

forces forcesFish write:
    Sum of forces
        Total    : (0.0860919 0.00438803 -0.00175404)
        Pressure : (0.0289626 0.00437562 -0.00175354)
        Viscous  : (0.0571292 1.24113e-05 -5.06947e-07)
    Sum of moments
        Total    : (1.11708e-05 0.000438614 0.00120806)
        Pressure : (1.09386e-05 0.000439793 0.00121592)
        Viscous  : (2.32168e-07 -1.1799e-06 -7.85966e-06)
    writing force and moment files.

Time = 23

smoothSolver:  Solving for Ux, Initial residual = 0.000135157, Final residual = 4.06436e-06, No Iterations 2
smoothSolver:  Solving for Uy, Initial residual = 0.00347167, Final residual = 0.00012376, No Iterations 2
smoothSolver:  Solving for Uz, Initial residual = 0.0187172, Final residual = 0.000858285, No Iterations 2
GAMG:  Solving for p, Initial residual = 0.0161555, Final residual = 0.00101691, No Iterations 2
time step continuity errors : sum local = 5.51528e-06, global = -1.30827e-06, cumulative = 5.74058e-06
smoothSolver:  Solving for omega, Initial residual = 0.000105164, Final residual = 8.07093e-06, No Iterations 1
smoothSolver:  Solving for k, Initial residual = 0.010712, Final residual = 0.000900625, No Iterations 1
ExecutionTime = 15.38 s  ClockTime = 16 s

forces forcesFish write:
    Sum of forces
        Total    : (0.085028 0.00485089 -0.00131013)
        Pressure : (0.0283051 0.00483322 -0.00131004)
        Viscous  : (0.0567228 1.7669e-05 -8.2697e-08)
    Sum of moments
        Total    : (1.43678e-05 0.00034175 0.00126138)
        Pressure : (1.41521e-05 0.000343086 0.00126795)
        Viscous  : (2.1579e-07 -1.33626e-06 -6.57206e-06)
    writing force and moment files.

Time = 24

smoothSolver:  Solving for Ux, Initial residual = 0.000122749, Final residual = 3.59314e-06, No Iterations 2
smoothSolver:  Solving for Uy, Initial residual = 0.00334639, Final residual = 0.000114202, No Iterations 2
smoothSolver:  Solving for Uz, Initial residual = 0.0171756, Final residual = 0.000744573, No Iterations 2
GAMG:  Solving for p, Initial residual = 0.0156998, Final residual = 0.000930418, No Iterations 2
time step continuity errors : sum local = 5.04263e-06, global = -1.37272e-06, cumulative = 4.36786e-06
smoothSolver:  Solving for omega, Initial residual = 9.32987e-05, Final residual = 7.16638e-06, No Iterations 1
smoothSolver:  Solving for k, Initial residual = 0.00987882, Final residual = 0.000831553, No Iterations 1
ExecutionTime = 15.97 s  ClockTime = 16 s

forces forcesFish write:
    Sum of forces
        Total    : (0.0845948 0.00539863 -0.000838289)
        Pressure : (0.0282611 0.00537362 -0.000838332)
        Viscous  : (0.0563337 2.50076e-05 4.36113e-08)
    Sum of moments
        Total    : (1.60014e-05 0.000245814 0.00138921)
        Pressure : (1.57928e-05 0.000247245 0.00139416)
        Viscous  : (2.08572e-07 -1.43103e-06 -4.95454e-06)
    writing force and moment files.

Time = 25

smoothSolver:  Solving for Ux, Initial residual = 0.000114015, Final residual = 3.19446e-06, No Iterations 2
smoothSolver:  Solving for Uy, Initial residual = 0.00321397, Final residual = 9.90814e-05, No Iterations 2
smoothSolver:  Solving for Uz, Initial residual = 0.0150989, Final residual = 0.000565962, No Iterations 2
GAMG:  Solving for p, Initial residual = 0.0152702, Final residual = 0.000849794, No Iterations 2
time step continuity errors : sum local = 4.51784e-06, global = -1.32368e-06, cumulative = 3.04417e-06
smoothSolver:  Solving for omega, Initial residual = 8.28251e-05, Final residual = 6.36488e-06, No Iterations 1
smoothSolver:  Solving for k, Initial residual = 0.00912507, Final residual = 0.000768575, No Iterations 1
ExecutionTime = 16.54 s  ClockTime = 17 s

forces forcesFish write:
    Sum of forces
        Total    : (0.0844232 0.00585231 -0.000421043)
        Pressure : (0.0284642 0.00581812 -0.000421241)
        Viscous  : (0.055959 3.41889e-05 1.97893e-07)
    Sum of moments
        Total    : (1.59167e-05 0.00016662 0.00153062)
        Pressure : (1.57108e-05 0.000168191 0.00153363)
        Viscous  : (2.05833e-07 -1.57153e-06 -3.00854e-06)
    writing force and moment files.

Time = 26

smoothSolver:  Solving for Ux, Initial residual = 0.000108187, Final residual = 2.88489e-06, No Iterations 2
smoothSolver:  Solving for Uy, Initial residual = 0.00310631, Final residual = 8.75656e-05, No Iterations 2
smoothSolver:  Solving for Uz, Initial residual = 0.0131717, Final residual = 0.000400627, No Iterations 2
GAMG:  Solving for p, Initial residual = 0.014536, Final residual = 0.000792625, No Iterations 2
time step continuity errors : sum local = 4.07884e-06, global = -1.19111e-06, cumulative = 1.85306e-06
smoothSolver:  Solving for omega, Initial residual = 7.35386e-05, Final residual = 5.65198e-06, No Iterations 1
smoothSolver:  Solving for k, Initial residual = 0.00843492, Final residual = 0.000710489, No Iterations 1
ExecutionTime = 17.18 s  ClockTime = 17 s

forces forcesFish write:
    Sum of forces
        Total    : (0.0842143 0.00609311 -0.000126699)
        Pressure : (0.0286164 0.00604881 -0.000126874)
        Viscous  : (0.0555979 4.4296e-05 1.75008e-07)
    Sum of moments
        Total    : (1.43653e-05 0.000116172 0.00163805)
        Pressure : (1.41551e-05 0.000117823 0.00163902)
        Viscous  : (2.10119e-07 -1.65089e-06 -9.61714e-07)
    writing force and moment files.

Time = 27

smoothSolver:  Solving for Ux, Initial residual = 0.00010354, Final residual = 2.6377e-06, No Iterations 2
smoothSolver:  Solving for Uy, Initial residual = 0.00301156, Final residual = 8.55978e-05, No Iterations 2
smoothSolver:  Solving for Uz, Initial residual = 0.0118597, Final residual = 0.000321061, No Iterations 2
GAMG:  Solving for p, Initial residual = 0.0135981, Final residual = 0.000749218, No Iterations 2
time step continuity errors : sum local = 3.7111e-06, global = -1.00638e-06, cumulative = 8.46683e-07
smoothSolver:  Solving for omega, Initial residual = 6.52723e-05, Final residual = 5.01705e-06, No Iterations 1
smoothSolver:  Solving for k, Initial residual = 0.0078048, Final residual = 0.000657101, No Iterations 1
ExecutionTime = 17.78 s  ClockTime = 18 s

forces forcesFish write:
    Sum of forces
        Total    : (0.0837988 0.00609258 1.41171e-05)
        Pressure : (0.0285483 0.00603782 1.40983e-05)
        Viscous  : (0.0552504 5.47617e-05 1.8826e-08)
    Sum of moments
        Total    : (1.19512e-05 9.8646e-05 0.00168797)
        Pressure : (1.17339e-05 0.000100319 0.00168681)
        Viscous  : (2.1726e-07 -1.67262e-06 1.15436e-06)
    writing force and moment files.

Time = 28

smoothSolver:  Solving for Ux, Initial residual = 9.75066e-05, Final residual = 2.41783e-06, No Iterations 2
smoothSolver:  Solving for Uy, Initial residual = 0.00289923, Final residual = 8.81275e-05, No Iterations 2
smoothSolver:  Solving for Uz, Initial residual = 0.0109252, Final residual = 0.000314845, No Iterations 2
GAMG:  Solving for p, Initial residual = 0.0125863, Final residual = 0.000688923, No Iterations 2
time step continuity errors : sum local = 3.29261e-06, global = -7.92329e-07, cumulative = 5.43541e-08
smoothSolver:  Solving for omega, Initial residual = 5.78919e-05, Final residual = 4.45065e-06, No Iterations 1
smoothSolver:  Solving for k, Initial residual = 0.00722221, Final residual = 0.000607442, No Iterations 1
ExecutionTime = 18.36 s  ClockTime = 19 s

forces forcesFish write:
    Sum of forces
        Total    : (0.0831417 0.00590088 1.16155e-05)
        Pressure : (0.0282246 0.00583601 1.1763e-05)
        Viscous  : (0.0549172 6.48721e-05 -1.47578e-07)
    Sum of moments
        Total    : (9.40331e-06 0.000110286 0.00168053)
        Pressure : (9.17787e-06 0.000111949 0.00167734)
        Viscous  : (2.25446e-07 -1.66324e-06 3.19323e-06)
    writing force and moment files.

Time = 29

smoothSolver:  Solving for Ux, Initial residual = 9.02836e-05, Final residual = 2.2168e-06, No Iterations 2
smoothSolver:  Solving for Uy, Initial residual = 0.00278455, Final residual = 8.93228e-05, No Iterations 2
smoothSolver:  Solving for Uz, Initial residual = 0.00998934, Final residual = 0.000312726, No Iterations 2
GAMG:  Solving for p, Initial residual = 0.0117834, Final residual = 0.000658519, No Iterations 2
time step continuity errors : sum local = 3.06283e-06, global = -5.50462e-07, cumulative = -4.96108e-07
smoothSolver:  Solving for omega, Initial residual = 5.12822e-05, Final residual = 3.94471e-06, No Iterations 1
smoothSolver:  Solving for k, Initial residual = 0.00668595, Final residual = 0.000561475, No Iterations 1
ExecutionTime = 18.94 s  ClockTime = 19 s

forces forcesFish write:
    Sum of forces
        Total    : (0.0823047 0.00560358 -9.65351e-05)
        Pressure : (0.0277058 0.00552926 -9.62584e-05)
        Viscous  : (0.0545988 7.4325e-05 -2.76736e-07)
    Sum of moments
        Total    : (7.26207e-06 0.000142512 0.0016309)
        Pressure : (7.02935e-06 0.000144146 0.00162577)
        Viscous  : (2.32718e-07 -1.63478e-06 5.13096e-06)
    writing force and moment files.

Time = 30

smoothSolver:  Solving for Ux, Initial residual = 8.28248e-05, Final residual = 2.04145e-06, No Iterations 2
smoothSolver:  Solving for Uy, Initial residual = 0.00265042, Final residual = 8.63865e-05, No Iterations 2
smoothSolver:  Solving for Uz, Initial residual = 0.00887893, Final residual = 0.000280389, No Iterations 2
GAMG:  Solving for p, Initial residual = 0.0109686, Final residual = 0.000660403, No Iterations 2
time step continuity errors : sum local = 3.02077e-06, global = -2.8797e-07, cumulative = -7.84077e-07
smoothSolver:  Solving for omega, Initial residual = 4.53513e-05, Final residual = 3.49146e-06, No Iterations 1
smoothSolver:  Solving for k, Initial residual = 0.0061857, Final residual = 0.000518383, No Iterations 1
ExecutionTime = 19.55 s  ClockTime = 20 s

forces forcesFish write:
    Sum of forces
        Total    : (0.0813778 0.00526289 -0.000273)
        Pressure : (0.0270827 0.00517994 -0.000272609)
        Viscous  : (0.0542951 8.29442e-05 -3.90977e-07)
    Sum of moments
        Total    : (5.72077e-06 0.000187607 0.00155443)
        Pressure : (5.4825e-06 0.000189192 0.0015475)
        Viscous  : (2.38263e-07 -1.58507e-06 6.92908e-06)
    writing force and moment files.

Time = 31

smoothSolver:  Solving for Ux, Initial residual = 7.67989e-05, Final residual = 1.89708e-06, No Iterations 2
smoothSolver:  Solving for Uy, Initial residual = 0.00254768, Final residual = 7.93488e-05, No Iterations 2
smoothSolver:  Solving for Uz, Initial residual = 0.0078333, Final residual = 0.000224584, No Iterations 2
GAMG:  Solving for p, Initial residual = 0.0101225, Final residual = 0.000631975, No Iterations 2
time step continuity errors : sum local = 2.86876e-06, global = -3.40465e-08, cumulative = -8.18124e-07
smoothSolver:  Solving for omega, Initial residual = 4.00245e-05, Final residual = 3.08592e-06, No Iterations 1
smoothSolver:  Solving for k, Initial residual = 0.00572183, Final residual = 0.000478239, No Iterations 1
ExecutionTime = 20.19 s  ClockTime = 20 s

forces forcesFish write:
    Sum of forces
        Total    : (0.080455 0.00492464 -0.000486973)
        Pressure : (0.0264486 0.00483391 -0.000486474)
        Viscous  : (0.0540064 9.07324e-05 -4.98378e-07)
    Sum of moments
        Total    : (4.88085e-06 0.000239082 0.00146516)
        Pressure : (4.63901e-06 0.000240602 0.00145655)
        Viscous  : (2.41838e-07 -1.51936e-06 8.60811e-06)
    writing force and moment files.

Time = 32

smoothSolver:  Solving for Ux, Initial residual = 7.3501e-05, Final residual = 1.79618e-06, No Iterations 2
smoothSolver:  Solving for Uy, Initial residual = 0.00249127, Final residual = 7.00169e-05, No Iterations 2
smoothSolver:  Solving for Uz, Initial residual = 0.00709836, Final residual = 0.000174776, No Iterations 2
GAMG:  Solving for p, Initial residual = 0.00923896, Final residual = 0.000576914, No Iterations 2
time step continuity errors : sum local = 2.61743e-06, global = 1.86183e-07, cumulative = -6.31941e-07
smoothSolver:  Solving for omega, Initial residual = 3.5241e-05, Final residual = 2.72391e-06, No Iterations 1
smoothSolver:  Solving for k, Initial residual = 0.00528521, Final residual = 0.000440315, No Iterations 1
ExecutionTime = 20.74 s  ClockTime = 21 s

forces forcesFish write:
    Sum of forces
        Total    : (0.0796175 0.00463458 -0.000702938)
        Pressure : (0.025885 0.00453681 -0.000702386)
        Viscous  : (0.0537325 9.77737e-05 -5.51497e-07)
    Sum of moments
        Total    : (4.79579e-06 0.000289206 0.00137816)
        Pressure : (4.5521e-06 0.000290661 0.00136796)
        Viscous  : (2.43689e-07 -1.45511e-06 1.01912e-05)
    writing force and moment files.

Time = 33

smoothSolver:  Solving for Ux, Initial residual = 7.10963e-05, Final residual = 1.70487e-06, No Iterations 2
smoothSolver:  Solving for Uy, Initial residual = 0.00244874, Final residual = 6.07778e-05, No Iterations 2
smoothSolver:  Solving for Uz, Initial residual = 0.00669857, Final residual = 0.000154712, No Iterations 2
GAMG:  Solving for p, Initial residual = 0.00844469, Final residual = 0.0005231, No Iterations 2
time step continuity errors : sum local = 2.38368e-06, global = 3.46898e-07, cumulative = -2.85043e-07
smoothSolver:  Solving for omega, Initial residual = 3.09446e-05, Final residual = 2.40036e-06, No Iterations 1
smoothSolver:  Solving for k, Initial residual = 0.00487737, Final residual = 0.000404772, No Iterations 1
ExecutionTime = 21.3 s  ClockTime = 21 s

forces forcesFish write:
    Sum of forces
        Total    : (0.0789136 0.00442264 -0.000886574)
        Pressure : (0.0254413 0.00431842 -0.000885988)
        Viscous  : (0.0534723 0.000104226 -5.86122e-07)
    Sum of moments
        Total    : (5.37241e-06 0.000330551 0.00130525)
        Pressure : (5.12834e-06 0.000331944 0.00129353)
        Viscous  : (2.44075e-07 -1.39268e-06 1.17154e-05)
    writing force and moment files.

Time = 34

smoothSolver:  Solving for Ux, Initial residual = 6.76268e-05, Final residual = 1.60445e-06, No Iterations 2
smoothSolver:  Solving for Uy, Initial residual = 0.00241932, Final residual = 5.46009e-05, No Iterations 2
smoothSolver:  Solving for Uz, Initial residual = 0.00643008, Final residual = 0.000152602, No Iterations 2
GAMG:  Solving for p, Initial residual = 0.00779008, Final residual = 0.000488013, No Iterations 2
time step continuity errors : sum local = 2.23872e-06, global = 4.6207e-07, cumulative = 1.77027e-07
smoothSolver:  Solving for omega, Initial residual = 2.70861e-05, Final residual = 2.11167e-06, No Iterations 1
smoothSolver:  Solving for k, Initial residual = 0.00449017, Final residual = 0.000370975, No Iterations 1
ExecutionTime = 21.87 s  ClockTime = 22 s

forces forcesFish write:
    Sum of forces
        Total    : (0.0783534 0.00429354 -0.0010145)
        Pressure : (0.0251285 0.00418327 -0.00101389)
        Viscous  : (0.0532249 0.00011027 -6.15761e-07)
    Sum of moments
        Total    : (6.38464e-06 0.000358145 0.00125191)
        Pressure : (6.14094e-06 0.000359482 0.0012387)
        Viscous  : (2.43702e-07 -1.33638e-06 1.32159e-05)
    writing force and moment files.

Time = 35

smoothSolver:  Solving for Ux, Initial residual = 6.25509e-05, Final residual = 1.49497e-06, No Iterations 2
smoothSolver:  Solving for Uy, Initial residual = 0.00240108, Final residual = 5.20597e-05, No Iterations 2
smoothSolver:  Solving for Uz, Initial residual = 0.00606182, Final residual = 0.000152487, No Iterations 2
GAMG:  Solving for p, Initial residual = 0.00726946, Final residual = 0.000467612, No Iterations 2
time step continuity errors : sum local = 2.15904e-06, global = 5.23712e-07, cumulative = 7.00739e-07
smoothSolver:  Solving for omega, Initial residual = 2.36255e-05, Final residual = 1.85435e-06, No Iterations 1
smoothSolver:  Solving for k, Initial residual = 0.00412541, Final residual = 0.000339119, No Iterations 1
ExecutionTime = 22.44 s  ClockTime = 23 s

forces forcesFish write:
    Sum of forces
        Total    : (0.0779179 0.00423153 -0.00107788)
        Pressure : (0.0249284 0.00411546 -0.00107723)
        Viscous  : (0.0529895 0.000116068 -6.54358e-07)
    Sum of moments
        Total    : (7.55924e-06 0.000370215 0.00121763)
        Pressure : (7.31579e-06 0.000371503 0.00120291)
        Viscous  : (2.43444e-07 -1.28839e-06 1.4723e-05)
    writing force and moment files.

Time = 36

smoothSolver:  Solving for Ux, Initial residual = 5.62695e-05, Final residual = 1.37781e-06, No Iterations 2
smoothSolver:  Solving for Uy, Initial residual = 0.00240261, Final residual = 5.29276e-05, No Iterations 2
smoothSolver:  Solving for Uz, Initial residual = 0.00557165, Final residual = 0.000145541, No Iterations 2
GAMG:  Solving for p, Initial residual = 0.00678936, Final residual = 0.000441789, No Iterations 2
time step continuity errors : sum local = 2.04919e-06, global = 5.37563e-07, cumulative = 1.2383e-06
smoothSolver:  Solving for omega, Initial residual = 2.05281e-05, Final residual = 1.62579e-06, No Iterations 1
smoothSolver:  Solving for k, Initial residual = 0.0037779, Final residual = 0.000308831, No Iterations 1
ExecutionTime = 23.01 s  ClockTime = 23 s

forces forcesFish write:
    Sum of forces
        Total    : (0.0775738 0.00421133 -0.00107957)
        Pressure : (0.0248085 0.00408965 -0.00107884)
        Viscous  : (0.0527653 0.000121679 -7.26292e-07)
    Sum of moments
        Total    : (8.65031e-06 0.000367597 0.00119823)
        Pressure : (8.40637e-06 0.000368844 0.001182)
        Viscous  : (2.43941e-07 -1.24671e-06 1.62261e-05)
    writing force and moment files.

Time = 37

smoothSolver:  Solving for Ux, Initial residual = 4.94104e-05, Final residual = 1.25899e-06, No Iterations 2
smoothSolver:  Solving for Uy, Initial residual = 0.00245729, Final residual = 5.59292e-05, No Iterations 2
smoothSolver:  Solving for Uz, Initial residual = 0.00502878, Final residual = 0.000129462, No Iterations 2
GAMG:  Solving for p, Initial residual = 0.00637439, Final residual = 0.00040914, No Iterations 2
time step continuity errors : sum local = 1.90197e-06, global = 5.17504e-07, cumulative = 1.75581e-06
smoothSolver:  Solving for omega, Initial residual = 1.7763e-05, Final residual = 1.42334e-06, No Iterations 1
smoothSolver:  Solving for k, Initial residual = 0.00344795, Final residual = 0.000280192, No Iterations 1
ExecutionTime = 23.58 s  ClockTime = 24 s

forces forcesFish write:
    Sum of forces
        Total    : (0.0772859 0.00420653 -0.00103046)
        Pressure : (0.0247345 0.0040794 -0.00102968)
        Viscous  : (0.0525513 0.000127128 -7.87296e-07)
    Sum of moments
        Total    : (9.46646e-06 0.000353004 0.00118803)
        Pressure : (9.22206e-06 0.000354225 0.00117031)
        Viscous  : (2.44409e-07 -1.22045e-06 1.77139e-05)
    writing force and moment files.

Time = 38

smoothSolver:  Solving for Ux, Initial residual = 4.3435e-05, Final residual = 1.14702e-06, No Iterations 2
smoothSolver:  Solving for Uy, Initial residual = 0.0025852, Final residual = 5.99054e-05, No Iterations 2
smoothSolver:  Solving for Uz, Initial residual = 0.00454228, Final residual = 0.000108264, No Iterations 2
GAMG:  Solving for p, Initial residual = 0.00596917, Final residual = 0.000368173, No Iterations 2
time step continuity errors : sum local = 1.71152e-06, global = 4.75195e-07, cumulative = 2.231e-06
smoothSolver:  Solving for omega, Initial residual = 1.53036e-05, Final residual = 1.24491e-06, No Iterations 1
smoothSolver:  Solving for k, Initial residual = 0.00313369, Final residual = 0.000253106, No Iterations 1
ExecutionTime = 24.24 s  ClockTime = 24 s

forces forcesFish write:
    Sum of forces
        Total    : (0.0770258 0.00419448 -0.000947839)
        Pressure : (0.0246789 0.00406211 -0.000946967)
        Viscous  : (0.0523469 0.000132363 -8.72287e-07)
    Sum of moments
        Total    : (9.89623e-06 0.000330667 0.00118131)
        Pressure : (9.65071e-06 0.000331859 0.00116215)
        Viscous  : (2.45527e-07 -1.19176e-06 1.91581e-05)
    writing force and moment files.

Time = 39

smoothSolver:  Solving for Ux, Initial residual = 3.99272e-05, Final residual = 1.0545e-06, No Iterations 2
smoothSolver:  Solving for Uy, Initial residual = 0.00276894, Final residual = 6.42066e-05, No Iterations 2
smoothSolver:  Solving for Uz, Initial residual = 0.00411522, Final residual = 8.78791e-05, No Iterations 2
GAMG:  Solving for p, Initial residual = 0.00555568, Final residual = 0.000318468, No Iterations 2
time step continuity errors : sum local = 1.47802e-06, global = 4.15369e-07, cumulative = 2.64637e-06
smoothSolver:  Solving for omega, Initial residual = 1.31268e-05, Final residual = 1.0885e-06, No Iterations 1
smoothSolver:  Solving for k, Initial residual = 0.00283437, Final residual = 0.000227562, No Iterations 1
ExecutionTime = 25.04 s  ClockTime = 25 s

forces forcesFish write:
    Sum of forces
        Total    : (0.0767757 0.00416029 -0.000851869)
        Pressure : (0.0246241 0.00402295 -0.000850958)
        Viscous  : (0.0521515 0.000137337 -9.11831e-07)
    Sum of moments
        Total    : (9.92283e-06 0.000305496 0.00117349)
        Pressure : (9.67706e-06 0.000306682 0.00115297)
        Viscous  : (2.45763e-07 -1.18528e-06 2.05241e-05)
    writing force and moment files.

Time = 40

smoothSolver:  Solving for Ux, Initial residual = 3.91613e-05, Final residual = 9.88659e-07, No Iterations 2
smoothSolver:  Solving for Uy, Initial residual = 0.00301886, Final residual = 6.91277e-05, No Iterations 2
smoothSolver:  Solving for Uz, Initial residual = 0.00374612, Final residual = 7.08249e-05, No Iterations 2
GAMG:  Solving for p, Initial residual = 0.00515833, Final residual = 0.000267231, No Iterations 2
time step continuity errors : sum local = 1.23739e-06, global = 3.4239e-07, cumulative = 2.98876e-06
smoothSolver:  Solving for omega, Initial residual = 1.12128e-05, Final residual = 9.52166e-07, No Iterations 1
smoothSolver:  Solving for k, Initial residual = 0.00255087, Final residual = 0.000203671, No Iterations 1
ExecutionTime = 25.72 s  ClockTime = 26 s

forces forcesFish write:
    Sum of forces
        Total    : (0.0765277 0.00409837 -0.000761219)
        Pressure : (0.0245629 0.0039564 -0.000760198)
        Viscous  : (0.0519649 0.000141964 -1.02038e-06)
    Sum of moments
        Total    : (9.61858e-06 0.000282052 0.00116182)
        Pressure : (9.37156e-06 0.000283208 0.00114005)
        Viscous  : (2.47018e-07 -1.15583e-06 2.17723e-05)
    writing force and moment files.

Time = 41

smoothSolver:  Solving for Ux, Initial residual = 3.89667e-05, Final residual = 9.35838e-07, No Iterations 2
smoothSolver:  Solving for Uy, Initial residual = 0.00332576, Final residual = 7.49277e-05, No Iterations 2
smoothSolver:  Solving for Uz, Initial residual = 0.00345077, Final residual = 5.93091e-05, No Iterations 2
GAMG:  Solving for p, Initial residual = 0.00480633, Final residual = 0.000232937, No Iterations 2
time step continuity errors : sum local = 1.07645e-06, global = 2.61635e-07, cumulative = 3.2504e-06
smoothSolver:  Solving for omega, Initial residual = 9.54065e-06, Final residual = 8.34075e-07, No Iterations 1
smoothSolver:  Solving for k, Initial residual = 0.00228167, Final residual = 0.000181332, No Iterations 1
ExecutionTime = 26.35 s  ClockTime = 27 s

forces forcesFish write:
    Sum of forces
        Total    : (0.076281 0.00401113 -0.000688945)
        Pressure : (0.0244945 0.00386493 -0.000687907)
        Viscous  : (0.0517865 0.000146204 -1.03876e-06)
    Sum of moments
        Total    : (9.10213e-06 0.000263487 0.0011454)
        Pressure : (8.85564e-06 0.00026465 0.00112251)
        Viscous  : (2.46492e-07 -1.16342e-06 2.28868e-05)
    writing force and moment files.

Time = 42

smoothSolver:  Solving for Ux, Initial residual = 3.78734e-05, Final residual = 8.854e-07, No Iterations 2
smoothSolver:  Solving for Uy, Initial residual = 0.00363505, Final residual = 8.07397e-05, No Iterations 2
smoothSolver:  Solving for Uz, Initial residual = 0.00324555, Final residual = 5.60175e-05, No Iterations 2
GAMG:  Solving for p, Initial residual = 0.00451927, Final residual = 0.000229578, No Iterations 2
time step continuity errors : sum local = 1.05986e-06, global = 1.82842e-07, cumulative = 3.43324e-06
smoothSolver:  Solving for omega, Initial residual = 8.09255e-06, Final residual = 7.32608e-07, No Iterations 1
smoothSolver:  Solving for k, Initial residual = 0.00202888, Final residual = 0.000160715, No Iterations 1
ExecutionTime = 27.01 s  ClockTime = 27 s

forces forcesFish write:
    Sum of forces
        Total    : (0.0760391 0.00390529 -0.000641565)
        Pressure : (0.024423 0.00375528 -0.000640402)
        Viscous  : (0.0516161 0.000150009 -1.16348e-06)
    Sum of moments
        Total    : (8.50541e-06 0.000251381 0.00112456)
        Pressure : (8.25725e-06 0.000252506 0.00110072)
        Viscous  : (2.48156e-07 -1.12507e-06 2.38474e-05)
    writing force and moment files.

Time = 43

smoothSolver:  Solving for Ux, Initial residual = 3.56192e-05, Final residual = 8.34381e-07, No Iterations 2
smoothSolver:  Solving for Uy, Initial residual = 0.00390515, Final residual = 8.51718e-05, No Iterations 2
smoothSolver:  Solving for Uz, Initial residual = 0.00309922, Final residual = 5.55243e-05, No Iterations 2
GAMG:  Solving for p, Initial residual = 0.00426436, Final residual = 0.000237063, No Iterations 2
time step continuity errors : sum local = 1.09473e-06, global = 1.18242e-07, cumulative = 3.55148e-06
smoothSolver:  Solving for omega, Initial residual = 6.84862e-06, Final residual = 6.46043e-07, No Iterations 1
smoothSolver:  Solving for k, Initial residual = 0.00179247, Final residual = 0.000141793, No Iterations 1
ExecutionTime = 27.75 s  ClockTime = 28 s

forces forcesFish write:
    Sum of forces
        Total    : (0.0758058 0.00378887 -0.000619326)
        Pressure : (0.0243527 0.00363545 -0.000618234)
        Viscous  : (0.0514531 0.000153414 -1.0918e-06)
    Sum of moments
        Total    : (7.93006e-06 0.000245681 0.00110034)
        Pressure : (7.68354e-06 0.000246841 0.00107567)
        Viscous  : (2.46527e-07 -1.1593e-06 2.46711e-05)
    writing force and moment files.

Time = 44

smoothSolver:  Solving for Ux, Initial residual = 3.23386e-05, Final residual = 7.82253e-07, No Iterations 2
smoothSolver:  Solving for Uy, Initial residual = 0.00384375, Final residual = 8.14985e-05, No Iterations 2
smoothSolver:  Solving for Uz, Initial residual = 0.00297561, Final residual = 5.36412e-05, No Iterations 2
GAMG:  Solving for p, Initial residual = 0.00402363, Final residual = 0.000233409, No Iterations 2
time step continuity errors : sum local = 1.07946e-06, global = 7.43807e-08, cumulative = 3.62586e-06
smoothSolver:  Solving for omega, Initial residual = 5.79049e-06, Final residual = 5.7275e-07, No Iterations 1
smoothSolver:  Solving for k, Initial residual = 0.00157293, Final residual = 0.000124563, No Iterations 1
ExecutionTime = 28.43 s  ClockTime = 29 s

forces forcesFish write:
    Sum of forces
        Total    : (0.0755857 0.00366992 -0.000619133)
        Pressure : (0.0242884 0.00351351 -0.000617899)
        Viscous  : (0.0512973 0.000156411 -1.23398e-06)
    Sum of moments
        Total    : (7.45786e-06 0.000245566 0.00107418)
        Pressure : (7.2087e-06 0.000246668 0.00104882)
        Viscous  : (2.49166e-07 -1.10199e-06 2.53628e-05)
    writing force and moment files.

Time = 45

smoothSolver:  Solving for Ux, Initial residual = 2.86071e-05, Final residual = 7.30702e-07, No Iterations 2
smoothSolver:  Solving for Uy, Initial residual = 0.00332502, Final residual = 6.76718e-05, No Iterations 2
smoothSolver:  Solving for Uz, Initial residual = 0.00285818, Final residual = 5.05206e-05, No Iterations 2
GAMG:  Solving for p, Initial residual = 0.00379209, Final residual = 0.000220553, No Iterations 2
time step continuity errors : sum local = 1.02245e-06, global = 4.00605e-08, cumulative = 3.66592e-06
smoothSolver:  Solving for omega, Initial residual = 4.89763e-06, Final residual = 8.94688e-08, No Iterations 2
smoothSolver:  Solving for k, Initial residual = 0.00137081, Final residual = 0.000108992, No Iterations 1
ExecutionTime = 29.03 s  ClockTime = 29 s

forces forcesFish write:
    Sum of forces
        Total    : (0.0753782 0.00355749 -0.00063429)
        Pressure : (0.02423 0.00339841 -0.000633172)
        Viscous  : (0.0511482 0.000159082 -1.11753e-06)
    Sum of moments
        Total    : (7.12495e-06 0.000249165 0.00104812)
        Pressure : (6.87793e-06 0.000250309 0.00102217)
        Viscous  : (2.47022e-07 -1.1439e-06 2.59509e-05)
    writing force and moment files.

Time = 46

smoothSolver:  Solving for Ux, Initial residual = 2.5607e-05, Final residual = 6.85105e-07, No Iterations 2
smoothSolver:  Solving for Uy, Initial residual = 0.00282091, Final residual = 5.4773e-05, No Iterations 2
smoothSolver:  Solving for Uz, Initial residual = 0.00273153, Final residual = 4.6538e-05, No Iterations 2
GAMG:  Solving for p, Initial residual = 0.00356033, Final residual = 0.000204153, No Iterations 2
time step continuity errors : sum local = 9.49058e-07, global = 1.51878e-08, cumulative = 3.68111e-06
smoothSolver:  Solving for omega, Initial residual = 4.06771e-06, Final residual = 8.21839e-08, No Iterations 2
smoothSolver:  Solving for k, Initial residual = 0.00118675, Final residual = 9.50848e-05, No Iterations 1
ExecutionTime = 29.6 s  ClockTime = 30 s

forces forcesFish write:
    Sum of forces
        Total    : (0.0751826 0.00345914 -0.000656919)
        Pressure : (0.0241768 0.00329773 -0.000655711)
        Viscous  : (0.0510058 0.000161409 -1.20821e-06)
    Sum of moments
        Total    : (6.9434e-06 0.000254429 0.00102407)
        Pressure : (6.69458e-06 0.00025553 0.000997639)
        Viscous  : (2.48819e-07 -1.10096e-06 2.64313e-05)
    writing force and moment files.

Time = 47

smoothSolver:  Solving for Ux, Initial residual = 2.41685e-05, Final residual = 6.52455e-07, No Iterations 2
smoothSolver:  Solving for Uy, Initial residual = 0.00239722, Final residual = 4.45353e-05, No Iterations 2
smoothSolver:  Solving for Uz, Initial residual = 0.00257178, Final residual = 4.21431e-05, No Iterations 2
GAMG:  Solving for p, Initial residual = 0.00332854, Final residual = 0.000183751, No Iterations 2
time step continuity errors : sum local = 8.56456e-07, global = -1.71688e-08, cumulative = 3.66394e-06
smoothSolver:  Solving for omega, Initial residual = 3.39596e-06, Final residual = 7.53161e-08, No Iterations 2
smoothSolver:  Solving for k, Initial residual = 0.00102093, Final residual = 8.27629e-05, No Iterations 1
ExecutionTime = 30.17 s  ClockTime = 30 s

forces forcesFish write:
    Sum of forces
        Total    : (0.0749948 0.00337765 -0.000679053)
        Pressure : (0.024125 0.00321414 -0.0006779)
        Viscous  : (0.0508698 0.000163509 -1.15219e-06)
    Sum of moments
        Total    : (6.87777e-06 0.000259228 0.00100304)
        Pressure : (6.62973e-06 0.000260341 0.000976193)
        Viscous  : (2.48042e-07 -1.11304e-06 2.68459e-05)
    writing force and moment files.

Time = 48

smoothSolver:  Solving for Ux, Initial residual = 2.39072e-05, Final residual = 6.29764e-07, No Iterations 2
smoothSolver:  Solving for Uy, Initial residual = 0.00206894, Final residual = 3.68028e-05, No Iterations 2
smoothSolver:  Solving for Uz, Initial residual = 0.00239768, Final residual = 0.000236873, No Iterations 1
GAMG:  Solving for p, Initial residual = 0.00309082, Final residual = 0.000162077, No Iterations 2
time step continuity errors : sum local = 7.57062e-07, global = -4.27283e-08, cumulative = 3.62121e-06
smoothSolver:  Solving for omega, Initial residual = 2.85377e-06, Final residual = 6.92418e-08, No Iterations 2
smoothSolver:  Solving for k, Initial residual = 0.000873268, Final residual = 7.19472e-05, No Iterations 1
ExecutionTime = 30.72 s  ClockTime = 31 s

forces forcesFish write:
    Sum of forces
        Total    : (0.0748087 0.00330863 -0.000695465)
        Pressure : (0.0240689 0.00314332 -0.000694235)
        Viscous  : (0.0507397 0.000165315 -1.22957e-06)
    Sum of moments
        Total    : (6.88216e-06 0.000262254 0.000984277)
        Pressure : (6.63245e-06 0.000263329 0.000957106)
        Viscous  : (2.49709e-07 -1.07485e-06 2.71715e-05)
    writing force and moment files.

Time = 49

smoothSolver:  Solving for Ux, Initial residual = 2.38676e-05, Final residual = 6.09533e-07, No Iterations 2
smoothSolver:  Solving for Uy, Initial residual = 0.0018059, Final residual = 3.0965e-05, No Iterations 2
smoothSolver:  Solving for Uz, Initial residual = 0.00226227, Final residual = 0.000222755, No Iterations 1
GAMG:  Solving for p, Initial residual = 0.00288554, Final residual = 0.000146123, No Iterations 2
time step continuity errors : sum local = 6.83527e-07, global = -6.3803e-08, cumulative = 3.55741e-06
smoothSolver:  Solving for omega, Initial residual = 2.41819e-06, Final residual = 6.38578e-08, No Iterations 2
smoothSolver:  Solving for k, Initial residual = 0.000742967, Final residual = 6.25087e-05, No Iterations 1
ExecutionTime = 31.3 s  ClockTime = 31 s

forces forcesFish write:
    Sum of forces
        Total    : (0.0746241 0.00325021 -0.000703701)
        Pressure : (0.0240087 0.00308322 -0.00070247)
        Viscous  : (0.0506154 0.000166993 -1.23131e-06)
    Sum of moments
        Total    : (6.9135e-06 0.000262903 0.000967746)
        Pressure : (6.66392e-06 0.000263971 0.000940278)
        Viscous  : (2.49582e-07 -1.06784e-06 2.74675e-05)
    writing force and moment files.

Time = 50

smoothSolver:  Solving for Ux, Initial residual = 2.35106e-05, Final residual = 5.8864e-07, No Iterations 2
smoothSolver:  Solving for Uy, Initial residual = 0.00158463, Final residual = 2.64308e-05, No Iterations 2
smoothSolver:  Solving for Uz, Initial residual = 0.00212464, Final residual = 0.000208625, No Iterations 1
GAMG:  Solving for p, Initial residual = 0.00270416, Final residual = 0.000133602, No Iterations 2
time step continuity errors : sum local = 6.25421e-07, global = -8.15685e-08, cumulative = 3.47584e-06
smoothSolver:  Solving for omega, Initial residual = 2.06941e-06, Final residual = 5.90328e-08, No Iterations 2
smoothSolver:  Solving for k, Initial residual = 0.000629101, Final residual = 5.43179e-05, No Iterations 1
ExecutionTime = 31.85 s  ClockTime = 32 s

forces forcesFish write:
    Sum of forces
        Total    : (0.074442 0.00319953 -0.000703373)
        Pressure : (0.0239454 0.00303108 -0.000702086)
        Viscous  : (0.0504966 0.00016845 -1.28642e-06)
    Sum of moments
        Total    : (6.94227e-06 0.000261151 0.000953008)
        Pressure : (6.69163e-06 0.00026219 0.000925316)
        Viscous  : (2.50642e-07 -1.0382e-06 2.76913e-05)
    writing force and moment files.

Time = 51

smoothSolver:  Solving for Ux, Initial residual = 2.27537e-05, Final residual = 5.66173e-07, No Iterations 2
smoothSolver:  Solving for Uy, Initial residual = 0.00140179, Final residual = 0.000138939, No Iterations 1
smoothSolver:  Solving for Uz, Initial residual = 0.00199495, Final residual = 0.000194154, No Iterations 1
GAMG:  Solving for p, Initial residual = 0.00253837, Final residual = 0.000129233, No Iterations 2
time step continuity errors : sum local = 6.05012e-07, global = -1.0032e-07, cumulative = 3.37552e-06
smoothSolver:  Solving for omega, Initial residual = 1.78918e-06, Final residual = 5.46216e-08, No Iterations 2
smoothSolver:  Solving for k, Initial residual = 0.000530742, Final residual = 4.7261e-05, No Iterations 1
ExecutionTime = 32.49 s  ClockTime = 33 s

forces forcesFish write:
    Sum of forces
        Total    : (0.0742591 0.00315132 -0.000695303)
        Pressure : (0.0238764 0.00298177 -0.000694039)
        Viscous  : (0.0503827 0.00016955 -1.26428e-06)
    Sum of moments
        Total    : (6.93989e-06 0.000257265 0.000938519)
        Pressure : (6.6898e-06 0.000258303 0.000910749)
        Viscous  : (2.5009e-07 -1.03859e-06 2.777e-05)
    writing force and moment files.

Time = 52

smoothSolver:  Solving for Ux, Initial residual = 2.15198e-05, Final residual = 5.41384e-07, No Iterations 2
smoothSolver:  Solving for Uy, Initial residual = 0.00127142, Final residual = 0.000125699, No Iterations 1
smoothSolver:  Solving for Uz, Initial residual = 0.00187973, Final residual = 0.00018022, No Iterations 1
GAMG:  Solving for p, Initial residual = 0.00238934, Final residual = 0.000132164, No Iterations 2
time step continuity errors : sum local = 6.18337e-07, global = -1.18843e-07, cumulative = 3.25668e-06
smoothSolver:  Solving for omega, Initial residual = 1.56488e-06, Final residual = 5.05831e-08, No Iterations 2
smoothSolver:  Solving for k, Initial residual = 0.000446563, Final residual = 4.12053e-05, No Iterations 1
ExecutionTime = 33.21 s  ClockTime = 33 s

forces forcesFish write:
    Sum of forces
        Total    : (0.0740784 0.0031053 -0.000680881)
        Pressure : (0.0238046 0.00293478 -0.000679548)
        Viscous  : (0.0502737 0.000170522 -1.33364e-06)
    Sum of moments
        Total    : (6.89822e-06 0.00025168 0.000924585)
        Pressure : (6.64677e-06 0.000252684 0.000896776)
        Viscous  : (2.51449e-07 -1.00375e-06 2.7809e-05)
    writing force and moment files.

Time = 53

smoothSolver:  Solving for Ux, Initial residual = 1.97686e-05, Final residual = 5.1388e-07, No Iterations 2
smoothSolver:  Solving for Uy, Initial residual = 0.00115927, Final residual = 0.000114507, No Iterations 1
smoothSolver:  Solving for Uz, Initial residual = 0.00177426, Final residual = 0.000167475, No Iterations 1
GAMG:  Solving for p, Initial residual = 0.00225476, Final residual = 0.000127896, No Iterations 2
time step continuity errors : sum local = 5.9761e-07, global = -1.29667e-07, cumulative = 3.12701e-06
smoothSolver:  Solving for omega, Initial residual = 1.38428e-06, Final residual = 4.68567e-08, No Iterations 2
smoothSolver:  Solving for k, Initial residual = 0.000375045, Final residual = 3.60147e-05, No Iterations 1
ExecutionTime = 33.81 s  ClockTime = 34 s

forces forcesFish write:
    Sum of forces
        Total    : (0.0739017 0.00306192 -0.000661787)
        Pressure : (0.0237324 0.00289045 -0.000660469)
        Viscous  : (0.0501693 0.00017147 -1.31804e-06)
    Sum of moments
        Total    : (6.80953e-06 0.000244885 0.000911601)
        Pressure : (6.55857e-06 0.00024589 0.000883756)
        Viscous  : (2.50959e-07 -1.00472e-06 2.78453e-05)
    writing force and moment files.

Time = 54

smoothSolver:  Solving for Ux, Initial residual = 1.77897e-05, Final residual = 4.84681e-07, No Iterations 2
smoothSolver:  Solving for Uy, Initial residual = 0.00106026, Final residual = 0.000104867, No Iterations 1
smoothSolver:  Solving for Uz, Initial residual = 0.00167547, Final residual = 0.000156793, No Iterations 1
GAMG:  Solving for p, Initial residual = 0.0021244, Final residual = 0.000120096, No Iterations 2
time step continuity errors : sum local = 5.60161e-07, global = -1.29451e-07, cumulative = 2.99756e-06
smoothSolver:  Solving for omega, Initial residual = 1.23811e-06, Final residual = 4.34133e-08, No Iterations 2
smoothSolver:  Solving for k, Initial residual = 0.000314836, Final residual = 5.55101e-06, No Iterations 2
ExecutionTime = 34.39 s  ClockTime = 35 s

forces forcesFish write:
    Sum of forces
        Total    : (0.0737241 0.00302189 -0.000640643)
        Pressure : (0.023663 0.0028497 -0.000639273)
        Viscous  : (0.0500611 0.000172193 -1.37066e-06)
    Sum of moments
        Total    : (6.67974e-06 0.000237669 0.000899918)
        Pressure : (6.42792e-06 0.00023865 0.000872123)
        Viscous  : (2.51817e-07 -9.80915e-07 2.7795e-05)
    writing force and moment files.

Time = 55

smoothSolver:  Solving for Ux, Initial residual = 1.64214e-05, Final residual = 4.63055e-07, No Iterations 2
smoothSolver:  Solving for Uy, Initial residual = 0.000969958, Final residual = 9.63555e-05, No Iterations 1
smoothSolver:  Solving for Uz, Initial residual = 0.00157825, Final residual = 0.00014806, No Iterations 1
GAMG:  Solving for p, Initial residual = 0.00200253, Final residual = 0.000111653, No Iterations 2
time step continuity errors : sum local = 5.19764e-07, global = -1.2467e-07, cumulative = 2.87289e-06
smoothSolver:  Solving for omega, Initial residual = 1.14268e-06, Final residual = 4.10313e-08, No Iterations 2
smoothSolver:  Solving for k, Initial residual = 0.000261706, Final residual = 4.98106e-06, No Iterations 2
ExecutionTime = 34.96 s  ClockTime = 35 s

forces forcesFish write:
    Sum of forces
        Total    : (0.0735529 0.00298533 -0.000620147)
        Pressure : (0.0235956 0.00281245 -0.000618792)
        Viscous  : (0.0499573 0.000172877 -1.35486e-06)
    Sum of moments
        Total    : (6.51867e-06 0.000230802 0.000889656)
        Pressure : (6.26746e-06 0.000231788 0.000861925)
        Viscous  : (2.51209e-07 -9.85293e-07 2.77305e-05)
    writing force and moment files.

Time = 56

smoothSolver:  Solving for Ux, Initial residual = 1.61633e-05, Final residual = 4.47976e-07, No Iterations 2
smoothSolver:  Solving for Uy, Initial residual = 0.000886252, Final residual = 1.52622e-05, No Iterations 2
smoothSolver:  Solving for Uz, Initial residual = 0.00147751, Final residual = 0.000140652, No Iterations 1
GAMG:  Solving for p, Initial residual = 0.00188945, Final residual = 0.000102156, No Iterations 2
time step continuity errors : sum local = 4.74672e-07, global = -1.20909e-07, cumulative = 2.75198e-06
smoothSolver:  Solving for omega, Initial residual = 1.05655e-06, Final residual = 3.85945e-08, No Iterations 2
smoothSolver:  Solving for k, Initial residual = 0.000217974, Final residual = 4.44768e-06, No Iterations 2
ExecutionTime = 35.57 s  ClockTime = 36 s

forces forcesFish write:
    Sum of forces
        Total    : (0.0733914 0.00295512 -0.000602305)
        Pressure : (0.0235333 0.00278155 -0.000600888)
        Viscous  : (0.0498581 0.000173566 -1.41741e-06)
    Sum of moments
        Total    : (6.34311e-06 0.000224873 0.000881863)
        Pressure : (6.09078e-06 0.000225832 0.000854176)
        Viscous  : (2.5233e-07 -9.5925e-07 2.76875e-05)
    writing force and moment files.

Time = 57

smoothSolver:  Solving for Ux, Initial residual = 1.65497e-05, Final residual = 4.36847e-07, No Iterations 2
smoothSolver:  Solving for Uy, Initial residual = 0.000798866, Final residual = 1.40011e-05, No Iterations 2
smoothSolver:  Solving for Uz, Initial residual = 0.00137997, Final residual = 0.000133765, No Iterations 1
GAMG:  Solving for p, Initial residual = 0.0017868, Final residual = 9.16523e-05, No Iterations 2
time step continuity errors : sum local = 4.25258e-07, global = -1.11988e-07, cumulative = 2.63999e-06
smoothSolver:  Solving for omega, Initial residual = 9.79496e-07, Final residual = 3.61469e-08, No Iterations 2
smoothSolver:  Solving for k, Initial residual = 0.000182096, Final residual = 3.96542e-06, No Iterations 2
ExecutionTime = 36.23 s  ClockTime = 36 s

forces forcesFish write:
    Sum of forces
        Total    : (0.0732372 0.00292944 -0.000587583)
        Pressure : (0.0234742 0.00275528 -0.000586188)
        Viscous  : (0.049763 0.000174158 -1.39483e-06)
    Sum of moments
        Total    : (6.1625e-06 0.000219945 0.000875631)
        Pressure : (5.91078e-06 0.000220913 0.000848029)
        Viscous  : (2.5172e-07 -9.67802e-07 2.76029e-05)
    writing force and moment files.

Time = 58

smoothSolver:  Solving for Ux, Initial residual = 1.69612e-05, Final residual = 4.26567e-07, No Iterations 2
smoothSolver:  Solving for Uy, Initial residual = 0.000732497, Final residual = 1.28265e-05, No Iterations 2
smoothSolver:  Solving for Uz, Initial residual = 0.00130163, Final residual = 0.000127536, No Iterations 1
GAMG:  Solving for p, Initial residual = 0.00169416, Final residual = 8.05743e-05, No Iterations 2
time step continuity errors : sum local = 3.7346e-07, global = -9.34785e-08, cumulative = 2.54651e-06
smoothSolver:  Solving for omega, Initial residual = 9.1149e-07, Final residual = 3.37536e-08, No Iterations 2
smoothSolver:  Solving for k, Initial residual = 0.000152822, Final residual = 3.53396e-06, No Iterations 2
ExecutionTime = 36.81 s  ClockTime = 37 s

forces forcesFish write:
    Sum of forces
        Total    : (0.0730899 0.00290665 -0.000575887)
        Pressure : (0.0234177 0.00273211 -0.000574466)
        Viscous  : (0.0496722 0.000174546 -1.42112e-06)
    Sum of moments
        Total    : (5.98765e-06 0.000215954 0.000870162)
        Pressure : (5.73535e-06 0.000216911 0.000842724)
        Viscous  : (2.52302e-07 -9.56784e-07 2.74375e-05)
    writing force and moment files.

Time = 59

smoothSolver:  Solving for Ux, Initial residual = 1.70845e-05, Final residual = 4.15103e-07, No Iterations 2
smoothSolver:  Solving for Uy, Initial residual = 0.00067322, Final residual = 6.71331e-05, No Iterations 1
smoothSolver:  Solving for Uz, Initial residual = 0.0012349, Final residual = 0.000121572, No Iterations 1
GAMG:  Solving for p, Initial residual = 0.00160852, Final residual = 7.17048e-05, No Iterations 2
time step continuity errors : sum local = 3.32081e-07, global = -6.43181e-08, cumulative = 2.4822e-06
smoothSolver:  Solving for omega, Initial residual = 8.50003e-07, Final residual = 3.14436e-08, No Iterations 2
smoothSolver:  Solving for k, Initial residual = 0.000128987, Final residual = 3.14817e-06, No Iterations 2
ExecutionTime = 37.4 s  ClockTime = 38 s

forces forcesFish write:
    Sum of forces
        Total    : (0.0729462 0.00288355 -0.000566395)
        Pressure : (0.0233608 0.00270878 -0.000565)
        Viscous  : (0.0495853 0.000174771 -1.39495e-06)
    Sum of moments
        Total    : (5.82274e-06 0.000212602 0.000864081)
        Pressure : (5.57102e-06 0.000213568 0.000836894)
        Viscous  : (2.51723e-07 -9.65756e-07 2.71866e-05)
    writing force and moment files.

Time = 60

smoothSolver:  Solving for Ux, Initial residual = 1.69202e-05, Final residual = 4.0215e-07, No Iterations 2
smoothSolver:  Solving for Uy, Initial residual = 0.00062666, Final residual = 6.25972e-05, No Iterations 1
smoothSolver:  Solving for Uz, Initial residual = 0.00117596, Final residual = 0.00011595, No Iterations 1
GAMG:  Solving for p, Initial residual = 0.00153242, Final residual = 6.5365e-05, No Iterations 2
time step continuity errors : sum local = 3.025e-07, global = -2.57195e-08, cumulative = 2.45648e-06
smoothSolver:  Solving for omega, Initial residual = 7.94972e-07, Final residual = 2.92449e-08, No Iterations 2
smoothSolver:  Solving for k, Initial residual = 0.000109586, Final residual = 2.80294e-06, No Iterations 2
ExecutionTime = 38.01 s  ClockTime = 38 s

forces forcesFish write:
    Sum of forces
        Total    : (0.0728075 0.00286123 -0.000558605)
        Pressure : (0.0233051 0.00268636 -0.000557181)
        Viscous  : (0.0495024 0.000174873 -1.42443e-06)
    Sum of moments
        Total    : (5.67266e-06 0.000209736 0.000857718)
        Pressure : (5.42022e-06 0.000210688 0.000830832)
        Viscous  : (2.52441e-07 -9.51987e-07 2.68858e-05)
    writing force and moment files.

Time = 61

smoothSolver:  Solving for Ux, Initial residual = 1.65028e-05, Final residual = 3.87972e-07, No Iterations 2
smoothSolver:  Solving for Uy, Initial residual = 0.000580735, Final residual = 1.03232e-05, No Iterations 2
smoothSolver:  Solving for Uz, Initial residual = 0.00111843, Final residual = 0.000110423, No Iterations 1
GAMG:  Solving for p, Initial residual = 0.00146685, Final residual = 6.40228e-05, No Iterations 2
time step continuity errors : sum local = 2.96092e-07, global = 1.93635e-08, cumulative = 2.47584e-06
smoothSolver:  Solving for omega, Initial residual = 7.45085e-07, Final residual = 2.71423e-08, No Iterations 2
smoothSolver:  Solving for k, Initial residual = 9.37533e-05, Final residual = 2.49356e-06, No Iterations 2
ExecutionTime = 38.63 s  ClockTime = 39 s

forces forcesFish write:
    Sum of forces
        Total    : (0.072677 0.00284375 -0.000552094)
        Pressure : (0.0232537 0.0026687 -0.000550693)
        Viscous  : (0.0494233 0.000175053 -1.40115e-06)
    Sum of moments
        Total    : (5.53724e-06 0.000207229 0.000852476)
        Pressure : (5.28524e-06 0.000208188 0.000825849)
        Viscous  : (2.51998e-07 -9.58844e-07 2.66274e-05)
    writing force and moment files.

Time = 62

smoothSolver:  Solving for Ux, Initial residual = 1.58537e-05, Final residual = 3.72749e-07, No Iterations 2
smoothSolver:  Solving for Uy, Initial residual = 0.000529401, Final residual = 9.45082e-06, No Iterations 2
smoothSolver:  Solving for Uz, Initial residual = 0.00106432, Final residual = 0.000105389, No Iterations 1
GAMG:  Solving for p, Initial residual = 0.00140432, Final residual = 6.86674e-05, No Iterations 2
time step continuity errors : sum local = 3.17406e-07, global = 6.33604e-08, cumulative = 2.5392e-06
smoothSolver:  Solving for omega, Initial residual = 6.99052e-07, Final residual = 2.51491e-08, No Iterations 2
smoothSolver:  Solving for k, Initial residual = 8.07831e-05, Final residual = 2.21639e-06, No Iterations 2
ExecutionTime = 39.21 s  ClockTime = 39 s

forces forcesFish write:
    Sum of forces
        Total    : (0.0725543 0.00283053 -0.000546206)
        Pressure : (0.0232064 0.00265543 -0.000544808)
        Viscous  : (0.0493478 0.000175102 -1.39831e-06)
    Sum of moments
        Total    : (5.41615e-06 0.00020488 0.000848154)
        Pressure : (5.16374e-06 0.000205837 0.000821842)
        Viscous  : (2.52406e-07 -9.57242e-07 2.63125e-05)
    writing force and moment files.

Time = 63

smoothSolver:  Solving for Ux, Initial residual = 1.49009e-05, Final residual = 3.56142e-07, No Iterations 2
smoothSolver:  Solving for Uy, Initial residual = 0.000483417, Final residual = 8.66963e-06, No Iterations 2
smoothSolver:  Solving for Uz, Initial residual = 0.00101063, Final residual = 0.000100701, No Iterations 1
GAMG:  Solving for p, Initial residual = 0.00134196, Final residual = 7.25231e-05, No Iterations 2
time step continuity errors : sum local = 3.35104e-07, global = 9.87929e-08, cumulative = 2.63799e-06
smoothSolver:  Solving for omega, Initial residual = 6.56188e-07, Final residual = 2.32577e-08, No Iterations 2
smoothSolver:  Solving for k, Initial residual = 7.01017e-05, Final residual = 1.96836e-06, No Iterations 2
ExecutionTime = 39.79 s  ClockTime = 40 s

forces forcesFish write:
    Sum of forces
        Total    : (0.0724389 0.00282113 -0.000540386)
        Pressure : (0.0231629 0.00264597 -0.000539008)
        Viscous  : (0.049276 0.00017516 -1.37736e-06)
    Sum of moments
        Total    : (5.30617e-06 0.00020252 0.000844666)
        Pressure : (5.05383e-06 0.000203482 0.000818669)
        Viscous  : (2.52341e-07 -9.62425e-07 2.5997e-05)
    writing force and moment files.

Time = 64

smoothSolver:  Solving for Ux, Initial residual = 1.35765e-05, Final residual = 3.37826e-07, No Iterations 2
smoothSolver:  Solving for Uy, Initial residual = 0.000442221, Final residual = 7.98088e-06, No Iterations 2
[...]
        Viscous  : (2.81677e-07 -7.71387e-07 1.58433e-05)
    writing force and moment files.

Time = 171

smoothSolver:  Solving for Ux, Initial residual = 1.86039e-07, Final residual = 1.61272e-08, No Iterations 1
smoothSolver:  Solving for Uy, Initial residual = 6.46271e-06, Final residual = 9.22983e-08, No Iterations 2
smoothSolver:  Solving for Uz, Initial residual = 1.52664e-05, Final residual = 2.28768e-07, No Iterations 2
GAMG:  Solving for p, Initial residual = 1.74068e-05, Final residual = 9.13796e-07, No Iterations 2
time step continuity errors : sum local = 4.18886e-09, global = -9.03536e-11, cumulative = 3.04422e-06
smoothSolver:  Solving for omega, Initial residual = 7.58835e-09, Final residual = 7.58835e-09, No Iterations 0
smoothSolver:  Solving for k, Initial residual = 1.23697e-08, Final residual = 9.00328e-10, No Iterations 1
ExecutionTime = 102.28 s  ClockTime = 102 s

forces forcesFish write:
    Sum of forces
        Total    : (0.0707821 0.00306336 -0.000275865)
        Pressure : (0.0226945 0.0028892 -0.000274324)
        Viscous  : (0.0480876 0.000174153 -1.54127e-06)
    Sum of moments
        Total    : (1.38327e-06 0.000101733 0.000914627)
        Pressure : (1.10241e-06 0.000102522 0.000898799)
        Viscous  : (2.80859e-07 -7.89378e-07 1.58279e-05)
    writing force and moment files.

Time = 172

smoothSolver:  Solving for Ux, Initial residual = 1.82575e-07, Final residual = 1.57532e-08, No Iterations 1
smoothSolver:  Solving for Uy, Initial residual = 6.27624e-06, Final residual = 6.25059e-07, No Iterations 1
smoothSolver:  Solving for Uz, Initial residual = 1.49378e-05, Final residual = 2.21837e-07, No Iterations 2
GAMG:  Solving for p, Initial residual = 1.67691e-05, Final residual = 8.10469e-07, No Iterations 2
time step continuity errors : sum local = 3.71522e-09, global = 6.87741e-10, cumulative = 3.0449e-06
smoothSolver:  Solving for omega, Initial residual = 9.38289e-09, Final residual = 9.38289e-09, No Iterations 0
smoothSolver:  Solving for k, Initial residual = 1.19988e-08, Final residual = 8.84287e-10, No Iterations 1
ExecutionTime = 102.85 s  ClockTime = 103 s

forces forcesFish write:
    Sum of forces
        Total    : (0.0707836 0.00306481 -0.000275153)
        Pressure : (0.0226961 0.00289055 -0.000273556)
        Viscous  : (0.0480876 0.000174259 -1.59608e-06)
    Sum of moments
        Total    : (1.37147e-06 0.000101466 0.00091521)
        Pressure : (1.08959e-06 0.000102233 0.00089934)
        Viscous  : (2.81874e-07 -7.67347e-07 1.58697e-05)
    writing force and moment files.

Time = 173

smoothSolver:  Solving for Ux, Initial residual = 1.76518e-07, Final residual = 1.52451e-08, No Iterations 1
smoothSolver:  Solving for Uy, Initial residual = 6.12998e-06, Final residual = 8.83854e-08, No Iterations 2
smoothSolver:  Solving for Uz, Initial residual = 1.44995e-05, Final residual = 2.18707e-07, No Iterations 2
GAMG:  Solving for p, Initial residual = 1.63112e-05, Final residual = 8.06274e-07, No Iterations 2
time step continuity errors : sum local = 3.69601e-09, global = 1.42066e-09, cumulative = 3.04633e-06
smoothSolver:  Solving for omega, Initial residual = 9.53298e-09, Final residual = 9.53298e-09, No Iterations 0
smoothSolver:  Solving for k, Initial residual = 1.16944e-08, Final residual = 8.67341e-10, No Iterations 1
ExecutionTime = 103.38 s  ClockTime = 104 s

forces forcesFish write:
    Sum of forces
        Total    : (0.0707845 0.00306614 -0.000274417)
        Pressure : (0.0226972 0.00289191 -0.000272858)
        Viscous  : (0.0480874 0.000174227 -1.55937e-06)
    Sum of moments
        Total    : (1.35911e-06 0.000101188 0.000915731)
        Pressure : (1.07789e-06 0.00010197 0.000899879)
        Viscous  : (2.8122e-07 -7.81825e-07 1.58526e-05)
    writing force and moment files.

Time = 174

smoothSolver:  Solving for Ux, Initial residual = 1.68359e-07, Final residual = 1.45535e-08, No Iterations 1
smoothSolver:  Solving for Uy, Initial residual = 5.94515e-06, Final residual = 8.50445e-08, No Iterations 2
smoothSolver:  Solving for Uz, Initial residual = 1.41837e-05, Final residual = 2.1235e-07, No Iterations 2
GAMG:  Solving for p, Initial residual = 1.5892e-05, Final residual = 9.34309e-07, No Iterations 2
time step continuity errors : sum local = 4.28296e-09, global = 2.07507e-09, cumulative = 3.0484e-06
smoothSolver:  Solving for omega, Initial residual = 1.1081e-08, Final residual = 1.29324e-09, No Iterations 1
smoothSolver:  Solving for k, Initial residual = 1.16444e-08, Final residual = 8.1226e-10, No Iterations 1
ExecutionTime = 103.94 s  ClockTime = 104 s

forces forcesFish write:
    Sum of forces
        Total    : (0.0707859 0.00306754 -0.000273739)
        Pressure : (0.0226986 0.00289321 -0.000272157)
        Viscous  : (0.0480874 0.000174329 -1.58207e-06)
    Sum of moments
        Total    : (1.34782e-06 0.000100933 0.00091629)
        Pressure : (1.06613e-06 0.000101705 0.000900398)
        Viscous  : (2.81689e-07 -7.7263e-07 1.58924e-05)
    writing force and moment files.

Time = 175

smoothSolver:  Solving for Ux, Initial residual = 1.57784e-07, Final residual = 1.37455e-08, No Iterations 1
smoothSolver:  Solving for Uy, Initial residual = 5.76846e-06, Final residual = 5.76453e-07, No Iterations 1
smoothSolver:  Solving for Uz, Initial residual = 1.38049e-05, Final residual = 2.08825e-07, No Iterations 2
GAMG:  Solving for p, Initial residual = 1.56003e-05, Final residual = 1.06455e-06, No Iterations 2
time step continuity errors : sum local = 4.88005e-09, global = 2.62744e-09, cumulative = 3.05103e-06
smoothSolver:  Solving for omega, Initial residual = 6.79332e-09, Final residual = 6.79332e-09, No Iterations 0
smoothSolver:  Solving for k, Initial residual = 1.11581e-08, Final residual = 7.93728e-10, No Iterations 1
ExecutionTime = 104.47 s  ClockTime = 105 s

forces forcesFish write:
    Sum of forces
        Total    : (0.0707868 0.0030688 -0.00027306)
        Pressure : (0.0226996 0.00289451 -0.000271494)
        Viscous  : (0.0480872 0.000174294 -1.56576e-06)
    Sum of moments
        Total    : (1.33647e-06 0.000100677 0.000916787)
        Pressure : (1.0551e-06 0.000101456 0.000900912)
        Viscous  : (2.81371e-07 -7.7896e-07 1.58749e-05)
    writing force and moment files.

Time = 176

smoothSolver:  Solving for Ux, Initial residual = 1.45209e-07, Final residual = 1.27526e-08, No Iterations 1
smoothSolver:  Solving for Uy, Initial residual = 5.63178e-06, Final residual = 8.11662e-08, No Iterations 2
smoothSolver:  Solving for Uz, Initial residual = 1.34565e-05, Final residual = 2.01904e-07, No Iterations 2
GAMG:  Solving for p, Initial residual = 1.52009e-05, Final residual = 1.16372e-06, No Iterations 2
time step continuity errors : sum local = 5.3347e-09, global = 3.05955e-09, cumulative = 3.05409e-06
smoothSolver:  Solving for omega, Initial residual = 7.15819e-09, Final residual = 7.15819e-09, No Iterations 0
smoothSolver:  Solving for k, Initial residual = 1.07e-08, Final residual = 7.73067e-10, No Iterations 1
ExecutionTime = 105.04 s  ClockTime = 105 s

forces forcesFish write:
    Sum of forces
        Total    : (0.0707881 0.00307012 -0.000272421)
        Pressure : (0.0227009 0.00289574 -0.000270848)
        Viscous  : (0.0480872 0.000174387 -1.57291e-06)
    Sum of moments
        Total    : (1.32587e-06 0.000100436 0.000917316)
        Pressure : (1.04428e-06 0.000101212 0.000901405)
        Viscous  : (2.81593e-07 -7.75999e-07 1.59111e-05)
    writing force and moment files.

Time = 177

smoothSolver:  Solving for Ux, Initial residual = 1.30617e-07, Final residual = 1.16678e-08, No Iterations 1
smoothSolver:  Solving for Uy, Initial residual = 5.45711e-06, Final residual = 7.82151e-08, No Iterations 2
smoothSolver:  Solving for Uz, Initial residual = 1.30601e-05, Final residual = 1.97506e-07, No Iterations 2
GAMG:  Solving for p, Initial residual = 1.48822e-05, Final residual = 1.23697e-06, No Iterations 2
time step continuity errors : sum local = 5.67052e-09, global = 3.36333e-09, cumulative = 3.05745e-06
smoothSolver:  Solving for omega, Initial residual = 8.44985e-09, Final residual = 8.44985e-09, No Iterations 0
smoothSolver:  Solving for k, Initial residual = 1.03126e-08, Final residual = 7.54173e-10, No Iterations 1
ExecutionTime = 105.58 s  ClockTime = 106 s

forces forcesFish write:
    Sum of forces
        Total    : (0.0707889 0.00307132 -0.000271801)
        Pressure : (0.0227019 0.00289696 -0.000270236)
        Viscous  : (0.048087 0.000174358 -1.56439e-06)
    Sum of moments
        Total    : (1.3154e-06 0.000100202 0.000917787)
        Pressure : (1.03402e-06 0.000100982 0.000901891)
        Viscous  : (2.81383e-07 -7.79192e-07 1.58963e-05)
    writing force and moment files.

Time = 178

smoothSolver:  Solving for Ux, Initial residual = 1.14892e-07, Final residual = 1.04864e-08, No Iterations 1
smoothSolver:  Solving for Uy, Initial residual = 5.28977e-06, Final residual = 5.27833e-07, No Iterations 1
smoothSolver:  Solving for Uz, Initial residual = 1.27138e-05, Final residual = 1.90546e-07, No Iterations 2
GAMG:  Solving for p, Initial residual = 1.44807e-05, Final residual = 1.27401e-06, No Iterations 2
time step continuity errors : sum local = 5.84036e-09, global = 3.52574e-09, cumulative = 3.06098e-06
smoothSolver:  Solving for omega, Initial residual = 8.89379e-09, Final residual = 8.89379e-09, No Iterations 0
smoothSolver:  Solving for k, Initial residual = 9.93662e-09, Final residual = 9.93662e-09, No Iterations 0
ExecutionTime = 106.1 s  ClockTime = 106 s

forces forcesFish write:
    Sum of forces
        Total    : (0.0707902 0.00307257 -0.000271225)
        Pressure : (0.0227032 0.00289813 -0.000269663)
        Viscous  : (0.048087 0.000174441 -1.56148e-06)
    Sum of moments
        Total    : (1.30585e-06 9.99858e-05 0.000918285)
        Pressure : (1.02439e-06 0.000100766 0.000902356)
        Viscous  : (2.81461e-07 -7.80295e-07 1.59281e-05)
    writing force and moment files.

Time = 179

smoothSolver:  Solving for Ux, Initial residual = 9.82257e-08, Final residual = 9.25403e-09, No Iterations 1
smoothSolver:  Solving for Uy, Initial residual = 5.14775e-06, Final residual = 7.4243e-08, No Iterations 2
smoothSolver:  Solving for Uz, Initial residual = 1.23166e-05, Final residual = 1.8528e-07, No Iterations 2
GAMG:  Solving for p, Initial residual = 1.41698e-05, Final residual = 1.28238e-06, No Iterations 2
time step continuity errors : sum local = 5.8788e-09, global = 3.56456e-09, cumulative = 3.06454e-06
smoothSolver:  Solving for omega, Initial residual = 1.00301e-08, Final residual = 1.19279e-09, No Iterations 1
smoothSolver:  Solving for k, Initial residual = 1.1139e-08, Final residual = 8.04893e-10, No Iterations 1
ExecutionTime = 106.68 s  ClockTime = 107 s

forces forcesFish write:
    Sum of forces
        Total    : (0.070791 0.00307369 -0.000270652)
        Pressure : (0.0227041 0.00289928 -0.00026909)
        Viscous  : (0.0480869 0.000174411 -1.56227e-06)
    Sum of moments
        Total    : (1.29611e-06 9.97699e-05 0.000918727)
        Pressure : (1.01471e-06 0.00010055 0.000902814)
        Viscous  : (2.814e-07 -7.7975e-07 1.59132e-05)
    writing force and moment files.

Time = 180

smoothSolver:  Solving for Ux, Initial residual = 8.18353e-08, Final residual = 8.06726e-09, No Iterations 1
smoothSolver:  Solving for Uy, Initial residual = 4.98276e-06, Final residual = 7.12108e-08, No Iterations 2
smoothSolver:  Solving for Uz, Initial residual = 1.19506e-05, Final residual = 1.78352e-07, No Iterations 2
GAMG:  Solving for p, Initial residual = 1.38075e-05, Final residual = 1.25384e-06, No Iterations 2
time step continuity errors : sum local = 5.74804e-09, global = 3.47865e-09, cumulative = 3.06802e-06
smoothSolver:  Solving for omega, Initial residual = 6.25259e-09, Final residual = 6.25259e-09, No Iterations 0
smoothSolver:  Solving for k, Initial residual = 1.05015e-08, Final residual = 7.64246e-10, No Iterations 1
ExecutionTime = 107.22 s  ClockTime = 107 s

forces forcesFish write:
    Sum of forces
        Total    : (0.0707921 0.00307487 -0.000270161)
        Pressure : (0.0227053 0.00290038 -0.00026861)
        Viscous  : (0.0480868 0.000174496 -1.55081e-06)
    Sum of moments
        Total    : (1.28778e-06 9.95845e-05 0.0009192)
        Pressure : (1.00646e-06 0.000100369 0.000903254)
        Viscous  : (2.81329e-07 -7.84301e-07 1.59459e-05)
    writing force and moment files.

Time = 181

smoothSolver:  Solving for Ux, Initial residual = 6.6406e-08, Final residual = 6.92539e-09, No Iterations 1
smoothSolver:  Solving for Uy, Initial residual = 4.81492e-06, Final residual = 4.80339e-07, No Iterations 1
smoothSolver:  Solving for Uz, Initial residual = 1.16316e-05, Final residual = 1.73759e-07, No Iterations 2
GAMG:  Solving for p, Initial residual = 1.34532e-05, Final residual = 1.19892e-06, No Iterations 2
time step continuity errors : sum local = 5.49632e-09, global = 3.27247e-09, cumulative = 3.07129e-06
smoothSolver:  Solving for omega, Initial residual = 6.43678e-09, Final residual = 6.43678e-09, No Iterations 0
smoothSolver:  Solving for k, Initial residual = 9.83501e-09, Final residual = 9.83501e-09, No Iterations 0
ExecutionTime = 107.79 s  ClockTime = 108 s

forces forcesFish write:
    Sum of forces
        Total    : (0.070793 0.00307592 -0.000269637)
        Pressure : (0.0227063 0.00290146 -0.000268069)
        Viscous  : (0.0480867 0.000174461 -1.5676e-06)
    Sum of moments
        Total    : (1.2788e-06 9.93875e-05 0.000919612)
        Pressure : (9.97253e-07 0.000100165 0.000903683)
        Viscous  : (2.81548e-07 -7.7736e-07 1.59296e-05)
    writing force and moment files.

Time = 182

smoothSolver:  Solving for Ux, Initial residual = 5.40804e-08, Final residual = 6.01469e-09, No Iterations 1
smoothSolver:  Solving for Uy, Initial residual = 4.67753e-06, Final residual = 6.72316e-08, No Iterations 2
smoothSolver:  Solving for Uz, Initial residual = 1.12518e-05, Final residual = 1.67175e-07, No Iterations 2
GAMG:  Solving for p, Initial residual = 1.30007e-05, Final residual = 1.11223e-06, No Iterations 2
time step continuity errors : sum local = 5.09897e-09, global = 2.97157e-09, cumulative = 3.07426e-06
smoothSolver:  Solving for omega, Initial residual = 7.61511e-09, Final residual = 7.61511e-09, No Iterations 0
smoothSolver:  Solving for k, Initial residual = 1.06011e-08, Final residual = 8.12969e-10, No Iterations 1
ExecutionTime = 108.36 s  ClockTime = 109 s

forces forcesFish write:
    Sum of forces
        Total    : (0.0707941 0.00307703 -0.000269183)
        Pressure : (0.0227074 0.00290248 -0.000267641)
        Viscous  : (0.0480867 0.000174552 -1.54202e-06)
    Sum of moments
        Total    : (1.27096e-06 9.9216e-05 0.00092006)
        Pressure : (9.8976e-07 0.000100004 0.000904095)
        Viscous  : (2.81205e-07 -7.87526e-07 1.5965e-05)
    writing force and moment files.

Time = 183

smoothSolver:  Solving for Ux, Initial residual = 5.01385e-08, Final residual = 5.70965e-09, No Iterations 1
smoothSolver:  Solving for Uy, Initial residual = 4.51824e-06, Final residual = 6.43353e-08, No Iterations 2
smoothSolver:  Solving for Uz, Initial residual = 1.09238e-05, Final residual = 1.62198e-07, No Iterations 2
GAMG:  Solving for p, Initial residual = 1.2591e-05, Final residual = 1.00759e-06, No Iterations 2
time step continuity errors : sum local = 4.6193e-09, global = 2.58357e-09, cumulative = 3.07685e-06
smoothSolver:  Solving for omega, Initial residual = 7.7819e-09, Final residual = 7.7819e-09, No Iterations 0
smoothSolver:  Solving for k, Initial residual = 1.00267e-08, Final residual = 7.56052e-10, No Iterations 1
ExecutionTime = 108.93 s  ClockTime = 109 s

forces forcesFish write:
    Sum of forces
        Total    : (0.0707949 0.00307801 -0.000268732)
        Pressure : (0.0227083 0.0029035 -0.000267162)
        Viscous  : (0.0480866 0.000174516 -1.56983e-06)
    Sum of moments
        Total    : (1.26299e-06 9.9046e-05 0.000920447)
        Pressure : (9.81363e-07 9.98222e-05 0.000904499)
        Viscous  : (2.81628e-07 -7.76224e-07 1.59481e-05)
    writing force and moment files.

Time = 184

smoothSolver:  Solving for Ux, Initial residual = 5.40793e-08, Final residual = 5.97538e-09, No Iterations 1
smoothSolver:  Solving for Uy, Initial residual = 4.3713e-06, Final residual = 4.35092e-07, No Iterations 1
smoothSolver:  Solving for Uz, Initial residual = 1.05923e-05, Final residual = 1.5646e-07, No Iterations 2
GAMG:  Solving for p, Initial residual = 1.21423e-05, Final residual = 8.82534e-07, No Iterations 2
time step continuity errors : sum local = 4.04601e-09, global = 2.12079e-09, cumulative = 3.07897e-06
smoothSolver:  Solving for omega, Initial residual = 8.96998e-09, Final residual = 8.96998e-09, No Iterations 0
smoothSolver:  Solving for k, Initial residual = 9.40682e-09, Final residual = 9.40682e-09, No Iterations 0
ExecutionTime = 109.48 s  ClockTime = 110 s

forces forcesFish write:
    Sum of forces
        Total    : (0.070796 0.00307906 -0.000268315)
        Pressure : (0.0227094 0.00290446 -0.000266781)
        Viscous  : (0.0480866 0.000174597 -1.53472e-06)
    Sum of moments
        Total    : (1.25567e-06 9.88881e-05 0.000920868)
        Pressure : (9.74529e-07 9.96783e-05 0.000904888)
        Viscous  : (2.81137e-07 -7.9019e-07 1.598e-05)
    writing force and moment files.

Time = 185

smoothSolver:  Solving for Ux, Initial residual = 5.98169e-08, Final residual = 6.31842e-09, No Iterations 1
smoothSolver:  Solving for Uy, Initial residual = 4.25285e-06, Final residual = 6.08002e-08, No Iterations 2
smoothSolver:  Solving for Uz, Initial residual = 1.02683e-05, Final residual = 1.51515e-07, No Iterations 2
GAMG:  Solving for p, Initial residual = 1.17142e-05, Final residual = 7.51393e-07, No Iterations 2
time step continuity errors : sum local = 3.44481e-09, global = 1.60792e-09, cumulative = 3.08058e-06
smoothSolver:  Solving for omega, Initial residual = 9.10765e-09, Final residual = 9.10765e-09, No Iterations 0
smoothSolver:  Solving for k, Initial residual = 1.01131e-08, Final residual = 7.91255e-10, No Iterations 1
ExecutionTime = 110.05 s  ClockTime = 110 s

forces forcesFish write:
    Sum of forces
        Total    : (0.0707968 0.00307999 -0.000267924)
        Pressure : (0.0227103 0.00290542 -0.000266344)
        Viscous  : (0.0480865 0.000174564 -1.57946e-06)
    Sum of moments
        Total    : (1.24856e-06 9.87408e-05 0.000921234)
        Pressure : (9.66713e-07 9.9513e-05 0.00090527)
        Viscous  : (2.81848e-07 -7.72162e-07 1.59645e-05)
    writing force and moment files.

Time = 186

smoothSolver:  Solving for Ux, Initial residual = 6.40279e-08, Final residual = 6.55346e-09, No Iterations 1
smoothSolver:  Solving for Uy, Initial residual = 4.12151e-06, Final residual = 4.10717e-07, No Iterations 1
smoothSolver:  Solving for Uz, Initial residual = 9.95074e-06, Final residual = 1.46388e-07, No Iterations 2
GAMG:  Solving for p, Initial residual = 1.12729e-05, Final residual = 6.13223e-07, No Iterations 2
time step continuity errors : sum local = 2.81138e-09, global = 1.05618e-09, cumulative = 3.08163e-06
smoothSolver:  Solving for omega, Initial residual = 1.02391e-08, Final residual = 1.23094e-09, No Iterations 1
smoothSolver:  Solving for k, Initial residual = 9.72335e-09, Final residual = 9.72335e-09, No Iterations 0
ExecutionTime = 110.58 s  ClockTime = 111 s


SIMPLE solution converged in 186 iterations

forces forcesFish write:
    Sum of forces
        Total    : (0.0707978 0.00308098 -0.000267526)
        Pressure : (0.0227114 0.00290634 -0.000266002)
        Viscous  : (0.0480865 0.000174641 -1.5245e-06)
    Sum of moments
        Total    : (1.2414e-06 9.85894e-05 0.000921633)
        Pressure : (9.60381e-07 9.93835e-05 0.000905638)
        Viscous  : (2.81016e-07 -7.94029e-07 1.59943e-05)
    writing force and moment files.

End

