/*---------------------------------------------------------------------------*\
| =========                 |                                                 |
| \\      /  F ield         | OpenFOAM: The Open Source CFD Toolbox           |
|  \\    /   O peration     | Version:  2512                                  |
|   \\  /    A nd           | Website:  www.openfoam.com                      |
|    \\/     M anipulation  |                                                 |
\*---------------------------------------------------------------------------*/
Build  : _bd2b6720-20260127 OPENFOAM=2512 version=2512
Arch   : "LSB;label=32;scalar=64"
Exec   : simpleFoam
Date   : Mar 27 2026
Time   : 16:32:40
Host   : mathias-laptop
PID    : 206398
I/O    : uncollated
Case   : /home/mat/OpenFOAM/mat-run/speed_sweep_runs/U_0p8
nProcs : 1
trapFpe: Floating point exception trapping enabled (FOAM_SIGFPE).
memory pool : not available
fileModificationChecking : Monitoring run-time modified files using timeStampMaster (fileModificationSkew 5, maxFileModificationPolls 20)
allowSystemOperations : Allowing user-supplied system call operations

// * * * * * * * * * * * * * * * * * * * * * * * * * * * * * * * * * * * * * //
Create time

Create mesh for time = 0


SIMPLE: convergence criteria
    field p	 tolerance 0.0001
    field U	 tolerance 1e-05
    field "(k|omega)"	 tolerance 1e-05

Reading field p

Reading field U

Reading/calculating face flux field phi

Selecting incompressible transport model Newtonian
Selecting turbulence model type RAS
Selecting RAS turbulence model kOmegaSST
Selecting patchDistMethod meshWave
RAS
{
    RASModel        kOmegaSST;
    turbulence      on;
    printCoeffs     on;
    alphaK1         0.85;
    alphaK2         1;
    alphaOmega1     0.5;
    alphaOmega2     0.856;
    gamma1          0.555556;
    gamma2          0.44;
    beta1           0.075;
    beta2           0.0828;
    betaStar        0.09;
    a1              0.31;
    b1              1;
    c1              10;
    F3              false;
    decayControl    false;
    kInf            0;
    omegaInf        0;
}

No MRF models present

No finite volume options present

Starting time loop

forces forcesFish:
    rho: rhoInf
    Freestream density (rhoInf) set to 1000
    Not including porosity effects

Time = 1

smoothSolver:  Solving for Ux, Initial residual = 1, Final residual = 0.0324998, No Iterations 2
smoothSolver:  Solving for Uy, Initial residual = 1, Final residual = 0.048876, No Iterations 2
smoothSolver:  Solving for Uz, Initial residual = 1, Final residual = 0.0458223, No Iterations 2
GAMG:  Solving for p, Initial residual = 1, Final residual = 0.0544895, No Iterations 5
time step continuity errors : sum local = 1.62298e-05, global = -1.86209e-06, cumulative = -1.86209e-06
smoothSolver:  Solving for omega, Initial residual = 0.0107234, Final residual = 0.00039301, No Iterations 1
bounding omega, min: -14.026 max: 10377.9 average: 85.312
smoothSolver:  Solving for k, Initial residual = 1, Final residual = 0.0362023, No Iterations 1
ExecutionTime = 1.82 s  ClockTime = 2 s

forces forcesFish write:
    Sum of forces
        Total    : (1.55557 -0.0459389 -0.00341228)
        Pressure : (1.38673 -0.045885 -0.00341772)
        Viscous  : (0.168847 -5.39042e-05 5.43985e-06)
    Sum of moments
        Total    : (-1.70792e-05 0.00110514 0.0243044)
        Pressure : (-1.70951e-05 0.00111447 0.0239818)
        Viscous  : (1.5932e-08 -9.33005e-06 0.000322644)
    writing force and moment files.

Time = 2

smoothSolver:  Solving for Ux, Initial residual = 0.0241931, Final residual = 0.0011034, No Iterations 2
smoothSolver:  Solving for Uy, Initial residual = 0.339527, Final residual = 0.0241888, No Iterations 2
smoothSolver:  Solving for Uz, Initial residual = 0.29852, Final residual = 0.0226811, No Iterations 2
GAMG:  Solving for p, Initial residual = 0.264876, Final residual = 0.0222889, No Iterations 3
time step continuity errors : sum local = 3.2041e-05, global = -1.92377e-06, cumulative = -3.78586e-06
smoothSolver:  Solving for omega, Initial residual = 0.00653976, Final residual = 0.000234365, No Iterations 1
smoothSolver:  Solving for k, Initial residual = 0.438294, Final residual = 0.0165032, No Iterations 1
ExecutionTime = 2.39 s  ClockTime = 3 s

forces forcesFish write:
    Sum of forces
        Total    : (2.02011 -0.0499933 -0.00289696)
        Pressure : (1.85317 -0.0500945 -0.00291245)
        Viscous  : (0.166941 0.00010121 1.54913e-05)
    Sum of moments
        Total    : (-1.50366e-05 0.000243065 0.0355081)
        Pressure : (-1.5057e-05 0.000263437 0.0351892)
        Viscous  : (2.03182e-08 -2.03713e-05 0.000318917)
    writing force and moment files.

Time = 3

smoothSolver:  Solving for Ux, Initial residual = 0.00646735, Final residual = 0.000310134, No Iterations 2
smoothSolver:  Solving for Uy, Initial residual = 0.158611, Final residual = 0.0111951, No Iterations 2
smoothSolver:  Solving for Uz, Initial residual = 0.196616, Final residual = 0.0147424, No Iterations 2
GAMG:  Solving for p, Initial residual = 0.141761, Final residual = 0.00511533, No Iterations 3
time step continuity errors : sum local = 1.94618e-05, global = -1.88265e-06, cumulative = -5.6685e-06
smoothSolver:  Solving for omega, Initial residual = 0.00454763, Final residual = 0.000170712, No Iterations 1
smoothSolver:  Solving for k, Initial residual = 0.257085, Final residual = 0.00998914, No Iterations 1
ExecutionTime = 2.94 s  ClockTime = 3 s

forces forcesFish write:
    Sum of forces
        Total    : (1.92935 -0.0430805 6.30945e-05)
        Pressure : (1.76374 -0.043307 3.33077e-05)
        Viscous  : (0.165613 0.000226542 2.97868e-05)
    Sum of moments
        Total    : (-2.43077e-05 -0.000736432 0.0356837)
        Pressure : (-2.42086e-05 -0.000705203 0.0353742)
        Viscous  : (-9.91076e-08 -3.12296e-05 0.000309531)
    writing force and moment files.

Time = 4

smoothSolver:  Solving for Ux, Initial residual = 0.00351535, Final residual = 0.000167832, No Iterations 2
smoothSolver:  Solving for Uy, Initial residual = 0.0865778, Final residual = 0.00601993, No Iterations 2
smoothSolver:  Solving for Uz, Initial residual = 0.127667, Final residual = 0.00937913, No Iterations 2
GAMG:  Solving for p, Initial residual = 0.110886, Final residual = 0.00465422, No Iterations 3
time step continuity errors : sum local = 3.21536e-05, global = -1.64035e-06, cumulative = -7.30885e-06
smoothSolver:  Solving for omega, Initial residual = 0.00334949, Final residual = 0.00013077, No Iterations 1
smoothSolver:  Solving for k, Initial residual = 0.17093, Final residual = 0.00681084, No Iterations 1
ExecutionTime = 3.47 s  ClockTime = 4 s

forces forcesFish write:
    Sum of forces
        Total    : (1.51835 -0.027378 0.0032961)
        Pressure : (1.35376 -0.0276987 0.00325385)
        Viscous  : (0.164591 0.000320692 4.22556e-05)
    Sum of moments
        Total    : (-3.41066e-05 -0.00140665 0.0298573)
        Pressure : (-3.38797e-05 -0.00136819 0.029553)
        Viscous  : (-2.269e-07 -3.84528e-05 0.000304267)
    writing force and moment files.

Time = 5

smoothSolver:  Solving for Ux, Initial residual = 0.00217271, Final residual = 9.98197e-05, No Iterations 2
smoothSolver:  Solving for Uy, Initial residual = 0.045749, Final residual = 0.0030988, No Iterations 2
smoothSolver:  Solving for Uz, Initial residual = 0.0773726, Final residual = 0.00549126, No Iterations 2
GAMG:  Solving for p, Initial residual = 0.0748215, Final residual = 0.0036949, No Iterations 3
time step continuity errors : sum local = 3.94784e-05, global = -7.02252e-07, cumulative = -8.0111e-06
smoothSolver:  Solving for omega, Initial residual = 0.00255911, Final residual = 0.000103149, No Iterations 1
smoothSolver:  Solving for k, Initial residual = 0.122482, Final residual = 0.00498319, No Iterations 1
ExecutionTime = 4 s  ClockTime = 4 s

forces forcesFish write:
    Sum of forces
        Total    : (0.987506 -0.0074019 0.00520021)
        Pressure : (0.823644 -0.00779015 0.00515105)
        Viscous  : (0.163862 0.000388247 4.91607e-05)
    Sum of moments
        Total    : (-3.58726e-05 -0.00171714 0.0216792)
        Pressure : (-3.5522e-05 -0.0016765 0.0213719)
        Viscous  : (-3.5067e-07 -4.06376e-05 0.000307248)
    writing force and moment files.

Time = 6

smoothSolver:  Solving for Ux, Initial residual = 0.00153896, Final residual = 5.97933e-05, No Iterations 2
smoothSolver:  Solving for Uy, Initial residual = 0.022373, Final residual = 0.00126749, No Iterations 2
smoothSolver:  Solving for Uz, Initial residual = 0.0431283, Final residual = 0.00251176, No Iterations 2
GAMG:  Solving for p, Initial residual = 0.0477867, Final residual = 0.00261232, No Iterations 3
time step continuity errors : sum local = 3.76543e-05, global = 5.54912e-07, cumulative = -7.45619e-06
smoothSolver:  Solving for omega, Initial residual = 0.00200831, Final residual = 8.30022e-05, No Iterations 1
smoothSolver:  Solving for k, Initial residual = 0.0924093, Final residual = 0.00382768, No Iterations 1
ExecutionTime = 4.54 s  ClockTime = 5 s

forces forcesFish write:
    Sum of forces
        Total    : (0.491524 0.0115037 0.00532269)
        Pressure : (0.328123 0.0110739 0.00527213)
        Viscous  : (0.163401 0.000429844 5.05648e-05)
    Sum of moments
        Total    : (-2.58683e-05 -0.00172321 0.0136822)
        Pressure : (-2.54071e-05 -0.00168449 0.0133644)
        Viscous  : (-4.61262e-07 -3.87193e-05 0.000317795)
    writing force and moment files.

Time = 7

smoothSolver:  Solving for Ux, Initial residual = 0.00126887, Final residual = 3.95944e-05, No Iterations 2
smoothSolver:  Solving for Uy, Initial residual = 0.0153126, Final residual = 0.000489725, No Iterations 2
smoothSolver:  Solving for Uz, Initial residual = 0.0358382, Final residual = 0.00125481, No Iterations 2
GAMG:  Solving for p, Initial residual = 0.0324482, Final residual = 0.0016701, No Iterations 3
time step continuity errors : sum local = 2.90122e-05, global = 1.67212e-06, cumulative = -5.78408e-06
smoothSolver:  Solving for omega, Initial residual = 0.00161037, Final residual = 6.78851e-05, No Iterations 1
smoothSolver:  Solving for k, Initial residual = 0.0724893, Final residual = 0.00305232, No Iterations 1
ExecutionTime = 5.17 s  ClockTime = 5 s

forces forcesFish write:
    Sum of forces
        Total    : (0.124948 0.0258986 0.00399432)
        Pressure : (-0.0381815 0.0254533 0.00394797)
        Viscous  : (0.16313 0.000445287 4.63487e-05)
    Sum of moments
        Total    : (-5.08814e-06 -0.00148891 0.00746614)
        Pressure : (-4.55097e-06 -0.00145517 0.00713415)
        Viscous  : (-5.37171e-07 -3.3742e-05 0.000331992)
    writing force and moment files.

Time = 8

smoothSolver:  Solving for Ux, Initial residual = 0.00118089, Final residual = 3.58795e-05, No Iterations 2
smoothSolver:  Solving for Uy, Initial residual = 0.0179583, Final residual = 0.000858818, No Iterations 2
smoothSolver:  Solving for Uz, Initial residual = 0.0581558, Final residual = 0.00313887, No Iterations 2
GAMG:  Solving for p, Initial residual = 0.0275215, Final residual = 0.0023395, No Iterations 2
time step continuity errors : sum local = 4.45903e-05, global = 2.65453e-06, cumulative = -3.12955e-06
smoothSolver:  Solving for omega, Initial residual = 0.00131476, Final residual = 5.63916e-05, No Iterations 1
smoothSolver:  Solving for k, Initial residual = 0.0586328, Final residual = 0.00250771, No Iterations 1
ExecutionTime = 5.79 s  ClockTime = 6 s

forces forcesFish write:
    Sum of forces
        Total    : (-0.0626832 0.0337546 0.00205464)
        Pressure : (-0.225625 0.0333143 0.00201704)
        Viscous  : (0.162942 0.000440292 3.7608e-05)
    Sum of moments
        Total    : (2.01881e-05 -0.00102846 0.00383742)
        Pressure : (2.07435e-05 -0.00100142 0.0034909)
        Viscous  : (-5.55408e-07 -2.70387e-05 0.000346524)
    writing force and moment files.

Time = 9

smoothSolver:  Solving for Ux, Initial residual = 0.00115505, Final residual = 3.5703e-05, No Iterations 2
smoothSolver:  Solving for Uy, Initial residual = 0.0192692, Final residual = 0.00102636, No Iterations 2
smoothSolver:  Solving for Uz, Initial residual = 0.0780796, Final residual = 0.00461317, No Iterations 2
GAMG:  Solving for p, Initial residual = 0.0300188, Final residual = 0.00208356, No Iterations 2
time step continuity errors : sum local = 4.01914e-05, global = 3.70424e-06, cumulative = 5.74694e-07
smoothSolver:  Solving for omega, Initial residual = 0.00108914, Final residual = 4.73872e-05, No Iterations 1
smoothSolver:  Solving for k, Initial residual = 0.0484935, Final residual = 0.00210409, No Iterations 1
ExecutionTime = 6.5 s  ClockTime = 7 s

forces forcesFish write:
    Sum of forces
        Total    : (-0.1115 0.0361322 -0.000191661)
        Pressure : (-0.274219 0.0357066 -0.000222072)
        Viscous  : (0.162719 0.000425629 3.04117e-05)
    Sum of moments
        Total    : (4.64976e-05 -0.000662803 0.00247575)
        Pressure : (4.70346e-05 -0.000641012 0.00211693)
        Viscous  : (-5.36952e-07 -2.1791e-05 0.00035882)
    writing force and moment files.

Time = 10

smoothSolver:  Solving for Ux, Initial residual = 0.00109816, Final residual = 3.3517e-05, No Iterations 2
smoothSolver:  Solving for Uy, Initial residual = 0.0181266, Final residual = 0.00097528, No Iterations 2
smoothSolver:  Solving for Uz, Initial residual = 0.0747048, Final residual = 0.00443374, No Iterations 2
GAMG:  Solving for p, Initial residual = 0.0349107, Final residual = 0.00261601, No Iterations 2
time step continuity errors : sum local = 4.85906e-05, global = 4.73824e-06, cumulative = 5.31294e-06
smoothSolver:  Solving for omega, Initial residual = 0.000913132, Final residual = 4.02392e-05, No Iterations 1
smoothSolver:  Solving for k, Initial residual = 0.0408812, Final residual = 0.00179719, No Iterations 1
ExecutionTime = 7.05 s  ClockTime = 7 s

forces forcesFish write:
    Sum of forces
        Total    : (-0.0641483 0.0340917 -0.00171236)
        Pressure : (-0.226494 0.033679 -0.00173512)
        Viscous  : (0.162346 0.000412649 2.27537e-05)
    Sum of moments
        Total    : (6.14899e-05 -0.000539624 0.0027561)
        Pressure : (6.19575e-05 -0.0005222 0.00238748)
        Viscous  : (-4.67598e-07 -1.74238e-05 0.000368617)
    writing force and moment files.

Time = 11

smoothSolver:  Solving for Ux, Initial residual = 0.000998548, Final residual = 2.91135e-05, No Iterations 2
smoothSolver:  Solving for Uy, Initial residual = 0.0153342, Final residual = 0.000776864, No Iterations 2
smoothSolver:  Solving for Uz, Initial residual = 0.0597973, Final residual = 0.0033445, No Iterations 2
GAMG:  Solving for p, Initial residual = 0.037812, Final residual = 0.00303604, No Iterations 2
time step continuity errors : sum local = 5.23358e-05, global = 5.22538e-06, cumulative = 1.05383e-05
smoothSolver:  Solving for omega, Initial residual = 0.000773308, Final residual = 3.45038e-05, No Iterations 1
smoothSolver:  Solving for k, Initial residual = 0.0349542, Final residual = 0.00155473, No Iterations 1
ExecutionTime = 7.62 s  ClockTime = 8 s

forces forcesFish write:
    Sum of forces
        Total    : (0.0357811 0.028438 -0.00207506)
        Pressure : (-0.125972 0.028032 -0.00209098)
        Viscous  : (0.161753 0.000405935 1.59211e-05)
    Sum of moments
        Total    : (5.83122e-05 -0.000653537 0.00384534)
        Pressure : (5.86805e-05 -0.00063927 0.00347009)
        Viscous  : (-3.68278e-07 -1.42668e-05 0.000375255)
    writing force and moment files.

Time = 12

smoothSolver:  Solving for Ux, Initial residual = 0.000870894, Final residual = 2.33833e-05, No Iterations 2
smoothSolver:  Solving for Uy, Initial residual = 0.0120351, Final residual = 0.000509119, No Iterations 2
smoothSolver:  Solving for Uz, Initial residual = 0.0453165, Final residual = 0.00210248, No Iterations 2
GAMG:  Solving for p, Initial residual = 0.0390759, Final residual = 0.0032195, No Iterations 2
time step continuity errors : sum local = 4.99649e-05, global = 5.11332e-06, cumulative = 1.56516e-05
smoothSolver:  Solving for omega, Initial residual = 0.00066042, Final residual = 2.98057e-05, No Iterations 1
smoothSolver:  Solving for k, Initial residual = 0.0302475, Final residual = 0.0013593, No Iterations 1
ExecutionTime = 8.18 s  ClockTime = 9 s

forces forcesFish write:
    Sum of forces
        Total    : (0.149117 0.0205439 -0.00102005)
        Pressure : (-0.0118248 0.0201359 -0.00103209)
        Viscous  : (0.160942 0.00040798 1.2043e-05)
    Sum of moments
        Total    : (3.49079e-05 -0.000979682 0.0050941)
        Pressure : (3.51798e-05 -0.00096675 0.00471481)
        Viscous  : (-2.71856e-07 -1.29323e-05 0.000379292)
    writing force and moment files.

Time = 13

smoothSolver:  Solving for Ux, Initial residual = 0.00074482, Final residual = 1.80993e-05, No Iterations 2
smoothSolver:  Solving for Uy, Initial residual = 0.00995676, Final residual = 0.000317905, No Iterations 2
smoothSolver:  Solving for Uz, Initial residual = 0.0376438, Final residual = 0.00122126, No Iterations 2
GAMG:  Solving for p, Initial residual = 0.0385286, Final residual = 0.00310237, No Iterations 2
time step continuity errors : sum local = 4.26958e-05, global = 4.76767e-06, cumulative = 2.04193e-05
smoothSolver:  Solving for omega, Initial residual = 0.000568194, Final residual = 2.59044e-05, No Iterations 1
smoothSolver:  Solving for k, Initial residual = 0.0264182, Final residual = 0.00119773, No Iterations 1
ExecutionTime = 8.75 s  ClockTime = 9 s

forces forcesFish write:
    Sum of forces
        Total    : (0.246495 0.0120777 0.00121039)
        Pressure : (0.086541 0.0116583 0.0011988)
        Viscous  : (0.159954 0.000419434 1.15919e-05)
    Sum of moments
        Total    : (-3.5721e-06 -0.00143249 0.00610555)
        Pressure : (-3.37958e-06 -0.00141915 0.00572363)
        Viscous  : (-1.92521e-07 -1.3335e-05 0.000381919)
    writing force and moment files.

Time = 14

smoothSolver:  Solving for Ux, Initial residual = 0.000656221, Final residual = 1.52056e-05, No Iterations 2
smoothSolver:  Solving for Uy, Initial residual = 0.00986039, Final residual = 0.000335121, No Iterations 2
smoothSolver:  Solving for Uz, Initial residual = 0.042, Final residual = 0.0015164, No Iterations 2
GAMG:  Solving for p, Initial residual = 0.0383965, Final residual = 0.00269383, No Iterations 2
time step continuity errors : sum local = 3.30203e-05, global = 3.8955e-06, cumulative = 2.43148e-05
smoothSolver:  Solving for omega, Initial residual = 0.000491842, Final residual = 2.26243e-05, No Iterations 1
smoothSolver:  Solving for k, Initial residual = 0.0232495, Final residual = 0.00106189, No Iterations 1
ExecutionTime = 9.29 s  ClockTime = 10 s

forces forcesFish write:
    Sum of forces
        Total    : (0.31175 0.00455563 0.00397887)
        Pressure : (0.152899 0.00411699 0.00396492)
        Viscous  : (0.158851 0.000438634 1.39446e-05)
    Sum of moments
        Total    : (-4.66438e-05 -0.00188888 0.0067157)
        Pressure : (-4.65102e-05 -0.00187392 0.00633149)
        Viscous  : (-1.33574e-07 -1.4959e-05 0.00038421)
    writing force and moment files.

Time = 15

smoothSolver:  Solving for Ux, Initial residual = 0.000607854, Final residual = 1.38063e-05, No Iterations 2
smoothSolver:  Solving for Uy, Initial residual = 0.00987055, Final residual = 0.000376915, No Iterations 2
smoothSolver:  Solving for Uz, Initial residual = 0.0432273, Final residual = 0.00181146, No Iterations 2
GAMG:  Solving for p, Initial residual = 0.0395428, Final residual = 0.0023263, No Iterations 2
time step continuity errors : sum local = 2.61756e-05, global = 3.03975e-06, cumulative = 2.73546e-05
smoothSolver:  Solving for omega, Initial residual = 0.000427815, Final residual = 1.98342e-05, No Iterations 1
smoothSolver:  Solving for k, Initial residual = 0.0205928, Final residual = 0.000946399, No Iterations 1
ExecutionTime = 9.86 s  ClockTime = 10 s

forces forcesFish write:
    Sum of forces
        Total    : (0.341123 -0.00090677 0.00646631)
        Pressure : (0.183417 -0.00136883 0.00644876)
        Viscous  : (0.157707 0.000462063 1.75414e-05)
    Sum of moments
        Total    : (-8.2356e-05 -0.0022309 0.00693449)
        Pressure : (-8.22591e-05 -0.00221392 0.00654776)
        Viscous  : (-9.69141e-08 -1.69859e-05 0.000386725)
    writing force and moment files.

Time = 16

smoothSolver:  Solving for Ux, Initial residual = 0.000567638, Final residual = 1.2507e-05, No Iterations 2
smoothSolver:  Solving for Uy, Initial residual = 0.00928651, Final residual = 0.000355417, No Iterations 2
smoothSolver:  Solving for Uz, Initial residual = 0.038688, Final residual = 0.00165054, No Iterations 2
GAMG:  Solving for p, Initial residual = 0.041571, Final residual = 0.00246307, No Iterations 2
time step continuity errors : sum local = 2.66856e-05, global = 1.79869e-06, cumulative = 2.91533e-05
smoothSolver:  Solving for omega, Initial residual = 0.00037352, Final residual = 1.74362e-05, No Iterations 1
smoothSolver:  Solving for k, Initial residual = 0.0183303, Final residual = 0.000846886, No Iterations 1
ExecutionTime = 10.39 s  ClockTime = 11 s

forces forcesFish write:
    Sum of forces
        Total    : (0.341967 -0.00404546 0.00809278)
        Pressure : (0.185393 -0.00453228 0.00807047)
        Viscous  : (0.156573 0.000486811 2.23058e-05)
    Sum of moments
        Total    : (-0.000103001 -0.00238752 0.00686181)
        Pressure : (-0.00010292 -0.00236827 0.00647182)
        Viscous  : (-8.17183e-08 -1.9251e-05 0.000389993)
    writing force and moment files.

Time = 17

smoothSolver:  Solving for Ux, Initial residual = 0.000520506, Final residual = 1.10296e-05, No Iterations 2
smoothSolver:  Solving for Uy, Initial residual = 0.00812371, Final residual = 0.00029043, No Iterations 2
smoothSolver:  Solving for Uz, Initial residual = 0.0325191, Final residual = 0.00129649, No Iterations 2
GAMG:  Solving for p, Initial residual = 0.0418737, Final residual = 0.00246328, No Iterations 2
time step continuity errors : sum local = 2.67727e-05, global = 2.66717e-07, cumulative = 2.942e-05
smoothSolver:  Solving for omega, Initial residual = 0.00032698, Final residual = 1.53331e-05, No Iterations 1
smoothSolver:  Solving for k, Initial residual = 0.016398, Final residual = 0.000761173, No Iterations 1
ExecutionTime = 10.94 s  ClockTime = 11 s

forces forcesFish write:
    Sum of forces
        Total    : (0.325452 -0.0052305 0.00890548)
        Pressure : (0.169957 -0.0057404 0.0088776)
        Viscous  : (0.155495 0.000509904 2.78837e-05)
    Sum of moments
        Total    : (-0.000106952 -0.00237747 0.00662692)
        Pressure : (-0.000106866 -0.00235599 0.00623303)
        Viscous  : (-8.57622e-08 -2.14854e-05 0.000393889)
    writing force and moment files.

Time = 18

smoothSolver:  Solving for Ux, Initial residual = 0.000472303, Final residual = 9.6408e-06, No Iterations 2
smoothSolver:  Solving for Uy, Initial residual = 0.00674928, Final residual = 0.000206312, No Iterations 2
smoothSolver:  Solving for Uz, Initial residual = 0.0263422, Final residual = 0.000900869, No Iterations 2
GAMG:  Solving for p, Initial residual = 0.0394906, Final residual = 0.00228272, No Iterations 2
time step continuity errors : sum local = 2.56067e-05, global = -9.11033e-07, cumulative = 2.8509e-05
smoothSolver:  Solving for omega, Initial residual = 0.000286861, Final residual = 1.34879e-05, No Iterations 1
smoothSolver:  Solving for k, Initial residual = 0.0147174, Final residual = 0.000686035, No Iterations 1
ExecutionTime = 11.46 s  ClockTime = 12 s

forces forcesFish write:
    Sum of forces
        Total    : (0.301081 -0.00471813 0.00885505)
        Pressure : (0.14659 -0.00524676 0.00882318)
        Viscous  : (0.154491 0.000528639 3.18657e-05)
    Sum of moments
        Total    : (-9.35822e-05 -0.00222137 0.00635999)
        Pressure : (-9.34866e-05 -0.00219863 0.00596215)
        Viscous  : (-9.56308e-08 -2.27385e-05 0.00039784)
    writing force and moment files.

Time = 19

smoothSolver:  Solving for Ux, Initial residual = 0.00042497, Final residual = 8.38025e-06, No Iterations 2
smoothSolver:  Solving for Uy, Initial residual = 0.00551832, Final residual = 0.000129109, No Iterations 2
smoothSolver:  Solving for Uz, Initial residual = 0.0220666, Final residual = 0.00056591, No Iterations 2
GAMG:  Solving for p, Initial residual = 0.0350764, Final residual = 0.00202199, No Iterations 2
time step continuity errors : sum local = 2.37507e-05, global = -1.94927e-06, cumulative = 2.65597e-05
smoothSolver:  Solving for omega, Initial residual = 0.00025215, Final residual = 1.18779e-05, No Iterations 1
smoothSolver:  Solving for k, Initial residual = 0.0132603, Final residual = 0.000620406, No Iterations 1
ExecutionTime = 12.02 s  ClockTime = 12 s

forces forcesFish write:
    Sum of forces
        Total    : (0.277047 -0.00300496 0.0079818)
        Pressure : (0.12348 -0.00354672 0.00794719)
        Viscous  : (0.153567 0.000541767 3.46098e-05)
    Sum of moments
        Total    : (-6.64449e-05 -0.00195113 0.00614683)
        Pressure : (-6.6338e-05 -0.00192791 0.00574548)
        Viscous  : (-1.06891e-07 -2.3225e-05 0.000401353)
    writing force and moment files.

Time = 20

smoothSolver:  Solving for Ux, Initial residual = 0.000377673, Final residual = 7.28257e-06, No Iterations 2
smoothSolver:  Solving for Uy, Initial residual = 0.00484325, Final residual = 0.000102753, No Iterations 2
smoothSolver:  Solving for Uz, Initial residual = 0.0206646, Final residual = 0.000491623, No Iterations 2
GAMG:  Solving for p, Initial residual = 0.0298217, Final residual = 0.00174451, No Iterations 2
time step continuity errors : sum local = 2.14624e-05, global = -2.73754e-06, cumulative = 2.38221e-05
smoothSolver:  Solving for omega, Initial residual = 0.000222031, Final residual = 1.048e-05, No Iterations 1
smoothSolver:  Solving for k, Initial residual = 0.0119757, Final residual = 0.000562085, No Iterations 1
ExecutionTime = 12.55 s  ClockTime = 13 s

forces forcesFish write:
    Sum of forces
        Total    : (0.258762 -0.000755444 0.00650288)
        Pressure : (0.106046 -0.00130551 0.00646649)
        Viscous  : (0.152716 0.000550066 3.63853e-05)
    Sum of moments
        Total    : (-3.264e-05 -0.00161486 0.00601539)
        Pressure : (-3.25229e-05 -0.00159161 0.00561103)
        Viscous  : (-1.17128e-07 -2.32553e-05 0.000404365)
    writing force and moment files.

Time = 21

smoothSolver:  Solving for Ux, Initial residual = 0.000330874, Final residual = 6.43736e-06, No Iterations 2
smoothSolver:  Solving for Uy, Initial residual = 0.00452662, Final residual = 0.000108552, No Iterations 2
smoothSolver:  Solving for Uz, Initial residual = 0.020727, Final residual = 0.000577612, No Iterations 2
GAMG:  Solving for p, Initial residual = 0.0261647, Final residual = 0.00151304, No Iterations 2
time step continuity errors : sum local = 1.9303e-05, global = -3.28011e-06, cumulative = 2.0542e-05
smoothSolver:  Solving for omega, Initial residual = 0.000195786, Final residual = 9.26433e-06, No Iterations 1
smoothSolver:  Solving for k, Initial residual = 0.0108433, Final residual = 0.000510281, No Iterations 1
ExecutionTime = 13.07 s  ClockTime = 13 s

forces forcesFish write:
    Sum of forces
        Total    : (0.248405 0.00137639 0.00476129)
        Pressure : (0.0964822 0.000822053 0.0047243)
        Viscous  : (0.151923 0.00055434 3.69902e-05)
    Sum of moments
        Total    : (-4.26876e-07 -0.00126956 0.00594842)
        Pressure : (-3.04684e-07 -0.00124671 0.00554167)
        Viscous  : (-1.22193e-07 -2.28513e-05 0.00040675)
    writing force and moment files.

Time = 22

smoothSolver:  Solving for Ux, Initial residual = 0.000292703, Final residual = 5.80059e-06, No Iterations 2
smoothSolver:  Solving for Uy, Initial residual = 0.00422402, Final residual = 0.000110883, No Iterations 2
smoothSolver:  Solving for Uz, Initial residual = 0.020504, Final residual = 0.000628653, No Iterations 2
GAMG:  Solving for p, Initial residual = 0.024143, Final residual = 0.0013798, No Iterations 2
time step continuity errors : sum local = 1.79884e-05, global = -3.63062e-06, cumulative = 1.69114e-05
smoothSolver:  Solving for omega, Initial residual = 0.000172795, Final residual = 8.20163e-06, No Iterations 1
smoothSolver:  Solving for k, Initial residual = 0.00983487, Final residual = 0.000463801, No Iterations 1
ExecutionTime = 13.64 s  ClockTime = 14 s

forces forcesFish write:
    Sum of forces
        Total    : (0.245378 0.00292593 0.00309934)
        Pressure : (0.0942049 0.00236944 0.00306256)
        Viscous  : (0.151173 0.000556489 3.67827e-05)
    Sum of moments
        Total    : (2.38409e-05 -0.000963272 0.00590943)
        Pressure : (2.39633e-05 -0.000940964 0.00550078)
        Viscous  : (-1.22387e-07 -2.23079e-05 0.000408648)
    writing force and moment files.

Time = 23

smoothSolver:  Solving for Ux, Initial residual = 0.000265626, Final residual = 5.19342e-06, No Iterations 2
smoothSolver:  Solving for Uy, Initial residual = 0.00390375, Final residual = 0.000101975, No Iterations 2
smoothSolver:  Solving for Uz, Initial residual = 0.0193921, Final residual = 0.00059078, No Iterations 2
GAMG:  Solving for p, Initial residual = 0.0228178, Final residual = 0.00128389, No Iterations 2
time step continuity errors : sum local = 1.68678e-05, global = -3.70137e-06, cumulative = 1.321e-05
smoothSolver:  Solving for omega, Initial residual = 0.000152571, Final residual = 7.27408e-06, No Iterations 1
smoothSolver:  Solving for k, Initial residual = 0.00893118, Final residual = 0.000421852, No Iterations 1
ExecutionTime = 14.19 s  ClockTime = 15 s

forces forcesFish write:
    Sum of forces
        Total    : (0.247544 0.00372466 0.00166987)
        Pressure : (0.0970923 0.00316636 0.00163373)
        Viscous  : (0.150452 0.000558295 3.61404e-05)
    Sum of moments
        Total    : (3.78995e-05 -0.000710684 0.0058633)
        Pressure : (3.80161e-05 -0.000689057 0.005453)
        Viscous  : (-1.16557e-07 -2.16278e-05 0.000410294)
    writing force and moment files.

Time = 24

smoothSolver:  Solving for Ux, Initial residual = 0.000246408, Final residual = 2.39716e-05, No Iterations 1
smoothSolver:  Solving for Uy, Initial residual = 0.00356746, Final residual = 8.388e-05, No Iterations 2
smoothSolver:  Solving for Uz, Initial residual = 0.017628, Final residual = 0.000478967, No Iterations 2
GAMG:  Solving for p, Initial residual = 0.0214543, Final residual = 0.00116038, No Iterations 2
time step continuity errors : sum local = 1.51901e-05, global = -3.49737e-06, cumulative = 9.71267e-06
smoothSolver:  Solving for omega, Initial residual = 0.000134694, Final residual = 6.45501e-06, No Iterations 1
smoothSolver:  Solving for k, Initial residual = 0.00811988, Final residual = 0.000383965, No Iterations 1
ExecutionTime = 14.75 s  ClockTime = 15 s

forces forcesFish write:
    Sum of forces
        Total    : (0.25263 0.00378243 0.000553623)
        Pressure : (0.102844 0.00322077 0.000518185)
        Viscous  : (0.149786 0.000561667 3.54382e-05)
    Sum of moments
        Total    : (4.11504e-05 -0.000516801 0.00578863)
        Pressure : (4.1257e-05 -0.000495699 0.00537642)
        Viscous  : (-1.06624e-07 -2.11012e-05 0.000412209)
    writing force and moment files.

Time = 25

smoothSolver:  Solving for Ux, Initial residual = 0.000237285, Final residual = 2.19761e-05, No Iterations 1
smoothSolver:  Solving for Uy, Initial residual = 0.00324141, Final residual = 6.38729e-05, No Iterations 2
smoothSolver:  Solving for Uz, Initial residual = 0.0156316, Final residual = 0.000336525, No Iterations 2
GAMG:  Solving for p, Initial residual = 0.020454, Final residual = 0.00105435, No Iterations 2
time step continuity errors : sum local = 1.36509e-05, global = -3.08728e-06, cumulative = 6.62539e-06
smoothSolver:  Solving for omega, Initial residual = 0.000118826, Final residual = 5.72815e-06, No Iterations 1
smoothSolver:  Solving for k, Initial residual = 0.00738191, Final residual = 0.000349316, No Iterations 1
ExecutionTime = 15.3 s  ClockTime = 16 s

forces forcesFish write:
    Sum of forces
        Total    : (0.258327 0.00316764 -0.000142441)
        Pressure : (0.109197 0.00260076 -0.000176215)
        Viscous  : (0.149131 0.000566879 3.3774e-05)
    Sum of moments
        Total    : (3.43733e-05 -0.00039605 0.00566413)
        Pressure : (3.44615e-05 -0.00037553 0.00524984)
        Viscous  : (-8.81963e-08 -2.05195e-05 0.000414284)
    writing force and moment files.

Time = 26

smoothSolver:  Solving for Ux, Initial residual = 0.000231044, Final residual = 2.02472e-05, No Iterations 1
smoothSolver:  Solving for Uy, Initial residual = 0.00296939, Final residual = 0.000284694, No Iterations 1
smoothSolver:  Solving for Uz, Initial residual = 0.01414, Final residual = 0.00136056, No Iterations 1
GAMG:  Solving for p, Initial residual = 0.0191744, Final residual = 0.000959198, No Iterations 2
time step continuity errors : sum local = 1.22399e-05, global = -2.5375e-06, cumulative = 4.08789e-06
smoothSolver:  Solving for omega, Initial residual = 0.000104686, Final residual = 5.07915e-06, No Iterations 1
smoothSolver:  Solving for k, Initial residual = 0.00671345, Final residual = 0.000317796, No Iterations 1
ExecutionTime = 15.85 s  ClockTime = 16 s

forces forcesFish write:
    Sum of forces
        Total    : (0.26276 0.00212933 -0.000429601)
        Pressure : (0.114274 0.00155642 -0.000462224)
        Viscous  : (0.148486 0.000572912 3.26231e-05)
    Sum of moments
        Total    : (2.17181e-05 -0.000345125 0.00549521)
        Pressure : (2.17888e-05 -0.000324824 0.00507921)
        Viscous  : (-7.07631e-08 -2.03012e-05 0.000416)
    writing force and moment files.

Time = 27

smoothSolver:  Solving for Ux, Initial residual = 0.000221285, Final residual = 1.86166e-05, No Iterations 1
smoothSolver:  Solving for Uy, Initial residual = 0.00275011, Final residual = 0.000258733, No Iterations 1
smoothSolver:  Solving for Uz, Initial residual = 0.0133421, Final residual = 0.00126561, No Iterations 1
GAMG:  Solving for p, Initial residual = 0.0178163, Final residual = 0.000896915, No Iterations 2
time step continuity errors : sum local = 1.12835e-05, global = -1.89126e-06, cumulative = 2.19663e-06
smoothSolver:  Solving for omega, Initial residual = 9.20633e-05, Final residual = 4.50109e-06, No Iterations 1
smoothSolver:  Solving for k, Initial residual = 0.006101, Final residual = 0.000288834, No Iterations 1
ExecutionTime = 16.4 s  ClockTime = 17 s

forces forcesFish write:
    Sum of forces
        Total    : (0.265283 0.000886206 -0.000339306)
        Pressure : (0.117427 0.000305906 -0.000370286)
        Viscous  : (0.147856 0.0005803 3.09799e-05)
    Sum of moments
        Total    : (6.36325e-06 -0.000359797 0.00530035)
        Pressure : (6.41307e-06 -0.000339813 0.0048825)
        Viscous  : (-4.98136e-08 -1.99837e-05 0.000417849)
    writing force and moment files.

Time = 28

smoothSolver:  Solving for Ux, Initial residual = 0.000207881, Final residual = 1.70296e-05, No Iterations 1
smoothSolver:  Solving for Uy, Initial residual = 0.00248722, Final residual = 0.000235003, No Iterations 1
smoothSolver:  Solving for Uz, Initial residual = 0.0123526, Final residual = 0.00120764, No Iterations 1
GAMG:  Solving for p, Initial residual = 0.0164661, Final residual = 0.000831924, No Iterations 2
time step continuity errors : sum local = 1.03444e-05, global = -1.23822e-06, cumulative = 9.58415e-07
smoothSolver:  Solving for omega, Initial residual = 8.07749e-05, Final residual = 3.98566e-06, No Iterations 1
smoothSolver:  Solving for k, Initial residual = 0.00553989, Final residual = 0.00026225, No Iterations 1
ExecutionTime = 16.92 s  ClockTime = 17 s

forces forcesFish write:
    Sum of forces
        Total    : (0.265833 -0.000355792 3.85197e-05)
        Pressure : (0.11859 -0.000944433 8.82201e-06)
        Viscous  : (0.147244 0.000588642 2.96977e-05)
    Sum of moments
        Total    : (-8.61273e-06 -0.000425437 0.00510168)
        Pressure : (-8.58013e-06 -0.000405575 0.00468184)
        Viscous  : (-3.25979e-08 -1.98612e-05 0.000419838)
    writing force and moment files.

Time = 29

smoothSolver:  Solving for Ux, Initial residual = 0.000192261, Final residual = 1.54595e-05, No Iterations 1
smoothSolver:  Solving for Uy, Initial residual = 0.00221462, Final residual = 0.000207325, No Iterations 1
smoothSolver:  Solving for Uz, Initial residual = 0.0111752, Final residual = 0.00111078, No Iterations 1
GAMG:  Solving for p, Initial residual = 0.0155176, Final residual = 0.00075385, No Iterations 2
time step continuity errors : sum local = 9.30109e-06, global = -4.90203e-07, cumulative = 4.68212e-07
smoothSolver:  Solving for omega, Initial residual = 7.06695e-05, Final residual = 3.52534e-06, No Iterations 1
smoothSolver:  Solving for k, Initial residual = 0.00502465, Final residual = 0.000237817, No Iterations 1
ExecutionTime = 17.43 s  ClockTime = 18 s

forces forcesFish write:
    Sum of forces
        Total    : (0.264757 -0.00145386 0.000600757)
        Pressure : (0.118105 -0.00205099 0.000572394)
        Viscous  : (0.146652 0.000597129 2.83627e-05)
    Sum of moments
        Total    : (-2.10485e-05 -0.000525805 0.00491628)
        Pressure : (-2.10317e-05 -0.000506142 0.00449448)
        Viscous  : (-1.67812e-08 -1.9663e-05 0.000421802)
    writing force and moment files.

Time = 30

smoothSolver:  Solving for Ux, Initial residual = 0.000176818, Final residual = 1.40123e-05, No Iterations 1
smoothSolver:  Solving for Uy, Initial residual = 0.00196335, Final residual = 0.000177359, No Iterations 1
smoothSolver:  Solving for Uz, Initial residual = 0.0100841, Final residual = 0.000971741, No Iterations 1
GAMG:  Solving for p, Initial residual = 0.014514, Final residual = 0.000681543, No Iterations 2
time step continuity errors : sum local = 8.37781e-06, global = 2.13193e-07, cumulative = 6.81405e-07
smoothSolver:  Solving for omega, Initial residual = 6.16277e-05, Final residual = 3.11499e-06, No Iterations 1
smoothSolver:  Solving for k, Initial residual = 0.00454716, Final residual = 0.000215181, No Iterations 1
ExecutionTime = 17.96 s  ClockTime = 18 s

forces forcesFish write:
    Sum of forces
        Total    : (0.262562 -0.00232465 0.00124669)
        Pressure : (0.116479 -0.00292996 0.00121923)
        Viscous  : (0.146083 0.000605312 2.74568e-05)
    Sum of moments
        Total    : (-2.96357e-05 -0.000643768 0.00475656)
        Pressure : (-2.96296e-05 -0.000624186 0.00433289)
        Viscous  : (-6.07064e-09 -1.95825e-05 0.000423671)
    writing force and moment files.

Time = 31

smoothSolver:  Solving for Ux, Initial residual = 0.000163433, Final residual = 1.27757e-05, No Iterations 1
smoothSolver:  Solving for Uy, Initial residual = 0.00174366, Final residual = 0.000147442, No Iterations 1
smoothSolver:  Solving for Uz, Initial residual = 0.0090474, Final residual = 0.000802363, No Iterations 1
GAMG:  Solving for p, Initial residual = 0.0133574, Final residual = 0.000609198, No Iterations 2
time step continuity errors : sum local = 7.48584e-06, global = 7.13161e-07, cumulative = 1.39457e-06
smoothSolver:  Solving for omega, Initial residual = 5.35502e-05, Final residual = 2.75037e-06, No Iterations 1
smoothSolver:  Solving for k, Initial residual = 0.00410668, Final residual = 0.000194328, No Iterations 1
ExecutionTime = 18.51 s  ClockTime = 19 s

forces forcesFish write:
    Sum of forces
        Total    : (0.259798 -0.00293195 0.0018798)
        Pressure : (0.114258 -0.00354442 0.00185311)
        Viscous  : (0.145539 0.000612465 2.66888e-05)
    Sum of moments
        Total    : (-3.37779e-05 -0.000761891 0.00463085)
        Pressure : (-3.37785e-05 -0.000742409 0.00420555)
        Viscous  : (5.8292e-10 -1.9482e-05 0.000425302)
    writing force and moment files.

Time = 32

smoothSolver:  Solving for Ux, Initial residual = 0.000153779, Final residual = 1.18101e-05, No Iterations 1
smoothSolver:  Solving for Uy, Initial residual = 0.00156848, Final residual = 0.000122677, No Iterations 1
smoothSolver:  Solving for Uz, Initial residual = 0.00817542, Final residual = 0.000650131, No Iterations 1
GAMG:  Solving for p, Initial residual = 0.0122907, Final residual = 0.000548619, No Iterations 2
time step continuity errors : sum local = 6.75655e-06, global = 1.12354e-06, cumulative = 2.51811e-06
smoothSolver:  Solving for omega, Initial residual = 4.63474e-05, Final residual = 2.4271e-06, No Iterations 1
smoothSolver:  Solving for k, Initial residual = 0.00369828, Final residual = 0.000175042, No Iterations 1
ExecutionTime = 19.03 s  ClockTime = 19 s

forces forcesFish write:
    Sum of forces
        Total    : (0.256946 -0.003283 0.00241325)
        Pressure : (0.111925 -0.00390129 0.00238708)
        Viscous  : (0.14502 0.000618282 2.61672e-05)
    Sum of moments
        Total    : (-3.36351e-05 -0.000863238 0.00454203)
        Pressure : (-3.36385e-05 -0.000843845 0.00411537)
        Viscous  : (3.40627e-09 -1.9393e-05 0.000426659)
    writing force and moment files.

Time = 33

smoothSolver:  Solving for Ux, Initial residual = 0.000145514, Final residual = 1.10349e-05, No Iterations 1
smoothSolver:  Solving for Uy, Initial residual = 0.00144473, Final residual = 0.000107876, No Iterations 1
smoothSolver:  Solving for Uz, Initial residual = 0.00755537, Final residual = 0.000554783, No Iterations 1
GAMG:  Solving for p, Initial residual = 0.0113689, Final residual = 0.000493019, No Iterations 2
time step continuity errors : sum local = 6.09357e-06, global = 1.34803e-06, cumulative = 3.86614e-06
smoothSolver:  Solving for omega, Initial residual = 3.99434e-05, Final residual = 2.14071e-06, No Iterations 1
smoothSolver:  Solving for k, Initial residual = 0.00331867, Final residual = 0.000157181, No Iterations 1
ExecutionTime = 19.57 s  ClockTime = 20 s

forces forcesFish write:
    Sum of forces
        Total    : (0.254356 -0.00342496 0.00278734)
        Pressure : (0.10983 -0.00404762 0.00276152)
        Viscous  : (0.144526 0.000622655 2.58204e-05)
    Sum of moments
        Total    : (-3.00677e-05 -0.000935071 0.00448606)
        Pressure : (-3.00711e-05 -0.000915785 0.00405836)
        Viscous  : (3.3546e-09 -1.92855e-05 0.000427696)
    writing force and moment files.

Time = 34

smoothSolver:  Solving for Ux, Initial residual = 0.000134731, Final residual = 1.02309e-05, No Iterations 1
smoothSolver:  Solving for Uy, Initial residual = 0.00136594, Final residual = 0.000100265, No Iterations 1
smoothSolver:  Solving for Uz, Initial residual = 0.00713101, Final residual = 0.000513898, No Iterations 1
GAMG:  Solving for p, Initial residual = 0.010485, Final residual = 0.000436456, No Iterations 2
time step continuity errors : sum local = 5.41527e-06, global = 1.34126e-06, cumulative = 5.2074e-06
smoothSolver:  Solving for omega, Initial residual = 3.427e-05, Final residual = 1.88734e-06, No Iterations 1
smoothSolver:  Solving for k, Initial residual = 0.00296716, Final residual = 0.000140724, No Iterations 1
ExecutionTime = 20.1 s  ClockTime = 20 s

forces forcesFish write:
    Sum of forces
        Total    : (0.252218 -0.0034282 0.00297538)
        Pressure : (0.108163 -0.00405399 0.00294978)
        Viscous  : (0.144055 0.000625789 2.56052e-05)
    Sum of moments
        Total    : (-2.43446e-05 -0.000970517 0.00445387)
        Pressure : (-2.43461e-05 -0.000951356 0.00402543)
        Viscous  : (1.47518e-09 -1.91606e-05 0.000428446)
    writing force and moment files.

Time = 35

smoothSolver:  Solving for Ux, Initial residual = 0.000120299, Final residual = 9.3188e-06, No Iterations 1
smoothSolver:  Solving for Uy, Initial residual = 0.00128943, Final residual = 9.43798e-05, No Iterations 1
smoothSolver:  Solving for Uz, Initial residual = 0.0067734, Final residual = 0.000493498, No Iterations 1
GAMG:  Solving for p, Initial residual = 0.00962524, Final residual = 0.000388965, No Iterations 2
time step continuity errors : sum local = 4.84148e-06, global = 1.14578e-06, cumulative = 6.35317e-06
smoothSolver:  Solving for omega, Initial residual = 2.92661e-05, Final residual = 1.66401e-06, No Iterations 1
smoothSolver:  Solving for k, Initial residual = 0.00264112, Final residual = 0.000125553, No Iterations 1
ExecutionTime = 20.6 s  ClockTime = 21 s

forces forcesFish write:
    Sum of forces
        Total    : (0.250583 -0.00336614 0.00297825)
        Pressure : (0.106977 -0.00399402 0.00295279)
        Viscous  : (0.143606 0.000627872 2.54607e-05)
    Sum of moments
        Total    : (-1.78334e-05 -0.000968195 0.00443453)
        Pressure : (-1.78323e-05 -0.000949176 0.00400559)
        Viscous  : (-1.12372e-09 -1.90184e-05 0.000428947)
    writing force and moment files.

Time = 36

smoothSolver:  Solving for Ux, Initial residual = 0.000105995, Final residual = 8.37005e-06, No Iterations 1
smoothSolver:  Solving for Uy, Initial residual = 0.00119245, Final residual = 8.8364e-05, No Iterations 1
smoothSolver:  Solving for Uz, Initial residual = 0.00638289, Final residual = 0.000467313, No Iterations 1
GAMG:  Solving for p, Initial residual = 0.00889502, Final residual = 0.000354095, No Iterations 2
time step continuity errors : sum local = 4.41628e-06, global = 9.72889e-07, cumulative = 7.32606e-06
smoothSolver:  Solving for omega, Initial residual = 2.48761e-05, Final residual = 1.4669e-06, No Iterations 1
smoothSolver:  Solving for k, Initial residual = 0.00233903, Final residual = 0.000111597, No Iterations 1
ExecutionTime = 21.12 s  ClockTime = 21 s

forces forcesFish write:
    Sum of forces
        Total    : (0.249405 -0.00330197 0.00282677)
        Pressure : (0.106228 -0.00393117 0.00280146)
        Viscous  : (0.143177 0.000629199 2.53141e-05)
    Sum of moments
        Total    : (-1.18434e-05 -0.000933496 0.00441783)
        Pressure : (-1.18396e-05 -0.000914638 0.00398857)
        Viscous  : (-3.7468e-09 -1.8858e-05 0.000429266)
    writing force and moment files.

Time = 37

smoothSolver:  Solving for Ux, Initial residual = 9.64577e-05, Final residual = 7.65296e-06, No Iterations 1
smoothSolver:  Solving for Uy, Initial residual = 0.00108806, Final residual = 8.07791e-05, No Iterations 1
smoothSolver:  Solving for Uz, Initial residual = 0.00593888, Final residual = 0.0004301, No Iterations 1
GAMG:  Solving for p, Initial residual = 0.00828684, Final residual = 0.000332171, No Iterations 2
time step continuity errors : sum local = 4.14469e-06, global = 8.69222e-07, cumulative = 8.19528e-06
smoothSolver:  Solving for omega, Initial residual = 2.10481e-05, Final residual = 1.29368e-06, No Iterations 1
smoothSolver:  Solving for k, Initial residual = 0.00206095, Final residual = 9.88541e-05, No Iterations 1
ExecutionTime = 21.67 s  ClockTime = 22 s

forces forcesFish write:
    Sum of forces
        Total    : (0.248583 -0.00328406 0.00258548)
        Pressure : (0.105816 -0.00391411 0.00256032)
        Viscous  : (0.142767 0.000630044 2.51607e-05)
    Sum of moments
        Total    : (-7.34879e-06 -0.000879227 0.00439541)
        Pressure : (-7.34296e-06 -0.000860534 0.00396593)
        Viscous  : (-5.82699e-09 -1.86931e-05 0.000429475)
    writing force and moment files.

Time = 38

smoothSolver:  Solving for Ux, Initial residual = 8.97846e-05, Final residual = 7.09441e-06, No Iterations 1
smoothSolver:  Solving for Uy, Initial residual = 0.000985234, Final residual = 7.20679e-05, No Iterations 1
smoothSolver:  Solving for Uz, Initial residual = 0.00546668, Final residual = 0.000380272, No Iterations 1
GAMG:  Solving for p, Initial residual = 0.00773187, Final residual = 0.000314264, No Iterations 2
time step continuity errors : sum local = 3.91718e-06, global = 7.034e-07, cumulative = 8.89868e-06
smoothSolver:  Solving for omega, Initial residual = 1.77336e-05, Final residual = 1.14217e-06, No Iterations 1
smoothSolver:  Solving for k, Initial residual = 0.00180595, Final residual = 8.72684e-05, No Iterations 1
ExecutionTime = 22.31 s  ClockTime = 23 s

forces forcesFish write:
    Sum of forces
        Total    : (0.247996 -0.00333795 0.00231888)
        Pressure : (0.105621 -0.00396864 0.00229393)
        Viscous  : (0.142375 0.000630692 2.49545e-05)
    Sum of moments
        Total    : (-4.73513e-06 -0.000818433 0.00436221)
        Pressure : (-4.72815e-06 -0.000799906 0.00393259)
        Viscous  : (-6.9837e-09 -1.85272e-05 0.000429624)
    writing force and moment files.

Time = 39

smoothSolver:  Solving for Ux, Initial residual = 8.42237e-05, Final residual = 6.62463e-06, No Iterations 1
smoothSolver:  Solving for Uy, Initial residual = 0.000893069, Final residual = 6.39086e-05, No Iterations 1
smoothSolver:  Solving for Uz, Initial residual = 0.00502385, Final residual = 0.000327024, No Iterations 1
GAMG:  Solving for p, Initial residual = 0.00720349, Final residual = 0.000296599, No Iterations 2
time step continuity errors : sum local = 3.68929e-06, global = 4.70558e-07, cumulative = 9.36924e-06
smoothSolver:  Solving for omega, Initial residual = 1.48853e-05, Final residual = 1.00972e-06, No Iterations 1
smoothSolver:  Solving for k, Initial residual = 0.00157264, Final residual = 7.67561e-05, No Iterations 1
ExecutionTime = 22.86 s  ClockTime = 23 s

forces forcesFish write:
    Sum of forces
        Total    : (0.247532 -0.00346579 0.00207208)
        Pressure : (0.105534 -0.00409704 0.00204736)
        Viscous  : (0.141998 0.000631255 2.47238e-05)
    Sum of moments
        Total    : (-3.93299e-06 -0.000760607 0.00431706)
        Pressure : (-3.92609e-06 -0.000742235 0.00388731)
        Viscous  : (-6.90898e-09 -1.83725e-05 0.000429748)
    writing force and moment files.

Time = 40

smoothSolver:  Solving for Ux, Initial residual = 8.09251e-05, Final residual = 6.28183e-06, No Iterations 1
smoothSolver:  Solving for Uy, Initial residual = 0.000815599, Final residual = 5.71746e-05, No Iterations 1
smoothSolver:  Solving for Uz, Initial residual = 0.00462928, Final residual = 0.000284553, No Iterations 1
GAMG:  Solving for p, Initial residual = 0.00671633, Final residual = 0.000280769, No Iterations 2
time step continuity errors : sum local = 3.48355e-06, global = 2.04148e-07, cumulative = 9.57339e-06
smoothSolver:  Solving for omega, Initial residual = 1.24569e-05, Final residual = 8.94736e-07, No Iterations 1
smoothSolver:  Solving for k, Initial residual = 0.00136138, Final residual = 6.73138e-05, No Iterations 1
ExecutionTime = 23.39 s  ClockTime = 24 s

forces forcesFish write:
    Sum of forces
        Total    : (0.247112 -0.00365349 0.00187329)
        Pressure : (0.105474 -0.00428531 0.00184881)
        Viscous  : (0.141638 0.000631826 2.4487e-05)
    Sum of moments
        Total    : (-4.60621e-06 -0.000712189 0.00426167)
        Pressure : (-4.60061e-06 -0.000693956 0.00383181)
        Viscous  : (-5.59802e-09 -1.82336e-05 0.000429862)
    writing force and moment files.

Time = 41

smoothSolver:  Solving for Ux, Initial residual = 7.80166e-05, Final residual = 5.9801e-06, No Iterations 1
smoothSolver:  Solving for Uy, Initial residual = 0.000755237, Final residual = 5.2068e-05, No Iterations 1
smoothSolver:  Solving for Uz, Initial residual = 0.00427828, Final residual = 0.000252868, No Iterations 1
GAMG:  Solving for p, Initial residual = 0.00626551, Final residual = 0.000263171, No Iterations 2
time step continuity errors : sum local = 3.25724e-06, global = -3.13178e-08, cumulative = 9.54207e-06
smoothSolver:  Solving for omega, Initial residual = 1.04035e-05, Final residual = 7.95008e-07, No Iterations 1
smoothSolver:  Solving for k, Initial residual = 0.00117146, Final residual = 5.88845e-05, No Iterations 1
ExecutionTime = 23.91 s  ClockTime = 24 s

forces forcesFish write:
    Sum of forces
        Total    : (0.246688 -0.0038782 0.00173848)
        Pressure : (0.105395 -0.00451062 0.00171426)
        Viscous  : (0.141293 0.000632417 2.42195e-05)
    Sum of moments
        Total    : (-6.28399e-06 -0.000677299 0.0041997)
        Pressure : (-6.28055e-06 -0.000659191 0.00376973)
        Viscous  : (-3.4351e-09 -1.81088e-05 0.000429969)
    writing force and moment files.

Time = 42

smoothSolver:  Solving for Ux, Initial residual = 7.43186e-05, Final residual = 5.66242e-06, No Iterations 1
smoothSolver:  Solving for Uy, Initial residual = 0.00071806, Final residual = 4.85921e-05, No Iterations 1
smoothSolver:  Solving for Uz, Initial residual = 0.00399802, Final residual = 0.000230881, No Iterations 1
GAMG:  Solving for p, Initial residual = 0.00583019, Final residual = 0.000242497, No Iterations 2
time step continuity errors : sum local = 2.99535e-06, global = -1.79359e-07, cumulative = 9.36271e-06
smoothSolver:  Solving for omega, Initial residual = 8.68088e-06, Final residual = 7.08422e-07, No Iterations 1
smoothSolver:  Solving for k, Initial residual = 0.001002, Final residual = 5.14014e-05, No Iterations 1
ExecutionTime = 24.41 s  ClockTime = 25 s

forces forcesFish write:
    Sum of forces
        Total    : (0.246245 -0.00411531 0.00167218)
        Pressure : (0.105281 -0.00474828 0.00164827)
        Viscous  : (0.140964 0.000632973 2.39076e-05)
    Sum of moments
        Total    : (-8.46082e-06 -0.000657635 0.00413539)
        Pressure : (-8.46011e-06 -0.000639643 0.00370533)
        Viscous  : (-7.12803e-10 -1.79913e-05 0.000430057)
    writing force and moment files.

Time = 43

smoothSolver:  Solving for Ux, Initial residual = 6.92978e-05, Final residual = 5.3061e-06, No Iterations 1
smoothSolver:  Solving for Uy, Initial residual = 0.000684569, Final residual = 4.56396e-05, No Iterations 1
smoothSolver:  Solving for Uz, Initial residual = 0.00375761, Final residual = 0.00021553, No Iterations 1
GAMG:  Solving for p, Initial residual = 0.0054302, Final residual = 0.000222791, No Iterations 2
time step continuity errors : sum local = 2.74798e-06, global = -2.30238e-07, cumulative = 9.13248e-06
smoothSolver:  Solving for omega, Initial residual = 7.24669e-06, Final residual = 6.33426e-07, No Iterations 1
smoothSolver:  Solving for k, Initial residual = 0.000851873, Final residual = 4.4787e-05, No Iterations 1
ExecutionTime = 24.95 s  ClockTime = 25 s

forces forcesFish write:
    Sum of forces
        Total    : (0.245786 -0.00434298 0.00166946)
        Pressure : (0.105137 -0.00497641 0.00164588)
        Viscous  : (0.14065 0.000633429 2.35845e-05)
    Sum of moments
        Total    : (-1.06779e-05 -0.000652706 0.00407279)
        Pressure : (-1.06801e-05 -0.000634814 0.00364269)
        Viscous  : (2.1924e-09 -1.78923e-05 0.000430102)
    writing force and moment files.

Time = 44

smoothSolver:  Solving for Ux, Initial residual = 6.28559e-05, Final residual = 4.88656e-06, No Iterations 1
smoothSolver:  Solving for Uy, Initial residual = 0.00064525, Final residual = 4.26974e-05, No Iterations 1
smoothSolver:  Solving for Uz, Initial residual = 0.00353995, Final residual = 0.000202749, No Iterations 1
GAMG:  Solving for p, Initial residual = 0.00505017, Final residual = 0.00019794, No Iterations 2
time step continuity errors : sum local = 2.4394e-06, global = -2.41692e-07, cumulative = 8.89078e-06
smoothSolver:  Solving for omega, Initial residual = 6.06036e-06, Final residual = 5.68319e-07, No Iterations 1
smoothSolver:  Solving for k, Initial residual = 0.00072033, Final residual = 3.89886e-05, No Iterations 1
ExecutionTime = 25.51 s  ClockTime = 26 s

forces forcesFish write:
    Sum of forces
        Total    : (0.245331 -0.00454269 0.00171683)
        Pressure : (0.10498 -0.00517635 0.00169358)
        Viscous  : (0.140351 0.000633654 2.32468e-05)
    Sum of moments
        Total    : (-1.25595e-05 -0.000659927 0.00401578)
        Pressure : (-1.25645e-05 -0.000642123 0.0035857)
        Viscous  : (4.98045e-09 -1.78038e-05 0.000430074)
    writing force and moment files.

Time = 45

smoothSolver:  Solving for Ux, Initial residual = 5.68871e-05, Final residual = 4.45779e-06, No Iterations 1
smoothSolver:  Solving for Uy, Initial residual = 0.000601006, Final residual = 3.96448e-05, No Iterations 1
smoothSolver:  Solving for Uz, Initial residual = 0.00332725, Final residual = 0.000189293, No Iterations 1
GAMG:  Solving for p, Initial residual = 0.00468958, Final residual = 0.000176436, No Iterations 2
time step continuity errors : sum local = 2.17377e-06, global = -2.77507e-07, cumulative = 8.61328e-06
smoothSolver:  Solving for omega, Initial residual = 5.08573e-06, Final residual = 9.65405e-08, No Iterations 2
smoothSolver:  Solving for k, Initial residual = 0.000605978, Final residual = 3.39263e-05, No Iterations 1
ExecutionTime = 26.06 s  ClockTime = 26 s

forces forcesFish write:
    Sum of forces
        Total    : (0.244895 -0.00470162 0.00179216)
        Pressure : (0.104828 -0.00533517 0.00176925)
        Viscous  : (0.140067 0.00063355 2.2908e-05)
    Sum of moments
        Total    : (-1.38613e-05 -0.00067448 0.00396742)
        Pressure : (-1.38687e-05 -0.000656756 0.00353747)
        Viscous  : (7.3711e-09 -1.77237e-05 0.000429951)
    writing force and moment files.

Time = 46

smoothSolver:  Solving for Ux, Initial residual = 5.19492e-05, Final residual = 4.09302e-06, No Iterations 1
smoothSolver:  Solving for Uy, Initial residual = 0.000556085, Final residual = 3.6609e-05, No Iterations 1
smoothSolver:  Solving for Uz, Initial residual = 0.00310931, Final residual = 0.000174609, No Iterations 1
GAMG:  Solving for p, Initial residual = 0.0043553, Final residual = 0.000160888, No Iterations 2
time step continuity errors : sum local = 1.9824e-06, global = -3.20518e-07, cumulative = 8.29276e-06
smoothSolver:  Solving for omega, Initial residual = 4.19562e-06, Final residual = 8.64405e-08, No Iterations 2
smoothSolver:  Solving for k, Initial residual = 0.000507571, Final residual = 2.95314e-05, No Iterations 1
ExecutionTime = 26.56 s  ClockTime = 27 s

forces forcesFish write:
    Sum of forces
        Total    : (0.244487 -0.00481756 0.00187206)
        Pressure : (0.10469 -0.00545061 0.00184951)
        Viscous  : (0.139797 0.000633049 2.2552e-05)
    Sum of moments
        Total    : (-1.45244e-05 -0.00069094 0.00392845)
        Pressure : (-1.45337e-05 -0.0006733 0.00349873)
        Viscous  : (9.34696e-09 -1.76402e-05 0.000429721)
    writing force and moment files.

Time = 47

smoothSolver:  Solving for Ux, Initial residual = 4.9007e-05, Final residual = 3.83254e-06, No Iterations 1
smoothSolver:  Solving for Uy, Initial residual = 0.000511231, Final residual = 3.36544e-05, No Iterations 1
smoothSolver:  Solving for Uz, Initial residual = 0.0028936, Final residual = 0.000160381, No Iterations 1
GAMG:  Solving for p, Initial residual = 0.00404828, Final residual = 0.000148095, No Iterations 2
time step continuity errors : sum local = 1.82528e-06, global = -2.99493e-07, cumulative = 7.99326e-06
smoothSolver:  Solving for omega, Initial residual = 3.48595e-06, Final residual = 7.69027e-08, No Iterations 2
smoothSolver:  Solving for k, Initial residual = 0.000423544, Final residual = 2.57239e-05, No Iterations 1
ExecutionTime = 27.1 s  ClockTime = 27 s

forces forcesFish write:
    Sum of forces
        Total    : (0.244111 -0.0048987 0.0019409)
        Pressure : (0.104569 -0.00553084 0.0019187)
        Viscous  : (0.139542 0.000632141 2.21989e-05)
    Sum of moments
        Total    : (-1.4646e-05 -0.000705449 0.00389713)
        Pressure : (-1.46569e-05 -0.000687892 0.00346775)
        Viscous  : (1.08973e-08 -1.75567e-05 0.000429378)
    writing force and moment files.

Time = 48

smoothSolver:  Solving for Ux, Initial residual = 4.73773e-05, Final residual = 3.64582e-06, No Iterations 1
smoothSolver:  Solving for Uy, Initial residual = 0.000468532, Final residual = 3.09558e-05, No Iterations 1
smoothSolver:  Solving for Uz, Initial residual = 0.00268613, Final residual = 0.000147223, No Iterations 1
GAMG:  Solving for p, Initial residual = 0.00377519, Final residual = 0.00013665, No Iterations 2
time step continuity errors : sum local = 1.68463e-06, global = -2.74745e-07, cumulative = 7.71852e-06
smoothSolver:  Solving for omega, Initial residual = 2.9189e-06, Final residual = 6.86044e-08, No Iterations 2
smoothSolver:  Solving for k, Initial residual = 0.000352389, Final residual = 2.24349e-05, No Iterations 1
ExecutionTime = 27.63 s  ClockTime = 28 s

forces forcesFish write:
    Sum of forces
        Total    : (0.243766 -0.00495639 0.00199047)
        Pressure : (0.104466 -0.00558721 0.0019686)
        Viscous  : (0.139301 0.000630819 2.18709e-05)
    Sum of moments
        Total    : (-1.43889e-05 -0.000715823 0.00387101)
        Pressure : (-1.4401e-05 -0.000698345 0.00344209)
        Viscous  : (1.20911e-08 -1.74773e-05 0.000428915)
    writing force and moment files.

Time = 49

smoothSolver:  Solving for Ux, Initial residual = 4.55297e-05, Final residual = 3.4686e-06, No Iterations 1
smoothSolver:  Solving for Uy, Initial residual = 0.000434116, Final residual = 2.88698e-05, No Iterations 1
smoothSolver:  Solving for Uz, Initial residual = 0.00249964, Final residual = 0.000135568, No Iterations 1
GAMG:  Solving for p, Initial residual = 0.00352917, Final residual = 0.000124666, No Iterations 2
time step continuity errors : sum local = 1.53706e-06, global = -2.47247e-07, cumulative = 7.47127e-06
smoothSolver:  Solving for omega, Initial residual = 2.46638e-06, Final residual = 6.15719e-08, No Iterations 2
smoothSolver:  Solving for k, Initial residual = 0.000292665, Final residual = 1.96039e-05, No Iterations 1
ExecutionTime = 28.14 s  ClockTime = 28 s

forces forcesFish write:
    Sum of forces
        Total    : (0.243453 -0.00500245 0.00201846)
        Pressure : (0.10438 -0.00563155 0.00199688)
        Viscous  : (0.139073 0.000629102 2.15805e-05)
    Sum of moments
        Total    : (-1.39254e-05 -0.000721294 0.00384742)
        Pressure : (-1.39384e-05 -0.000703888 0.00341909)
        Viscous  : (1.30049e-08 -1.74056e-05 0.000428333)
    writing force and moment files.

Time = 50

smoothSolver:  Solving for Ux, Initial residual = 4.32249e-05, Final residual = 3.28136e-06, No Iterations 1
smoothSolver:  Solving for Uy, Initial residual = 0.000407064, Final residual = 2.71688e-05, No Iterations 1
smoothSolver:  Solving for Uz, Initial residual = 0.00234128, Final residual = 0.000126012, No Iterations 1
GAMG:  Solving for p, Initial residual = 0.00330085, Final residual = 0.000112641, No Iterations 2
time step continuity errors : sum local = 1.38865e-06, global = -2.31872e-07, cumulative = 7.2394e-06
smoothSolver:  Solving for omega, Initial residual = 2.10593e-06, Final residual = 5.56595e-08, No Iterations 2
smoothSolver:  Solving for k, Initial residual = 0.000242897, Final residual = 1.717e-05, No Iterations 1
ExecutionTime = 28.63 s  ClockTime = 29 s

forces forcesFish write:
    Sum of forces
        Total    : (0.243167 -0.00504587 0.00202553)
        Pressure : (0.104309 -0.0056729 0.00200419)
        Viscous  : (0.138858 0.000627031 2.13346e-05)
    Sum of moments
        Total    : (-1.34038e-05 -0.000721874 0.00382441)
        Pressure : (-1.34176e-05 -0.00070453 0.00339677)
        Viscous  : (1.37642e-08 -1.73435e-05 0.000427642)
    writing force and moment files.

Time = 51

smoothSolver:  Solving for Ux, Initial residual = 4.0169e-05, Final residual = 3.06784e-06, No Iterations 1
smoothSolver:  Solving for Uy, Initial residual = 0.000381933, Final residual = 2.5618e-05, No Iterations 1
smoothSolver:  Solving for Uz, Initial residual = 0.00220496, Final residual = 0.000118239, No Iterations 1
GAMG:  Solving for p, Initial residual = 0.00308366, Final residual = 0.000102985, No Iterations 2
time step continuity errors : sum local = 1.26908e-06, global = -2.19084e-07, cumulative = 7.02032e-06
smoothSolver:  Solving for omega, Initial residual = 1.81772e-06, Final residual = 5.07034e-08, No Iterations 2
smoothSolver:  Solving for k, Initial residual = 0.00020169, Final residual = 1.50782e-05, No Iterations 1
ExecutionTime = 29.14 s  ClockTime = 29 s

forces forcesFish write:
    Sum of forces
        Total    : (0.242902 -0.00509108 0.00201484)
        Pressure : (0.104247 -0.00571574 0.00199371)
        Viscous  : (0.138656 0.000624654 2.11315e-05)
    Sum of moments
        Total    : (-1.29465e-05 -0.000718215 0.00380125)
        Pressure : (-1.29608e-05 -0.000700927 0.00337439)
        Viscous  : (1.43105e-08 -1.72876e-05 0.000426857)
    writing force and moment files.

Time = 52

smoothSolver:  Solving for Ux, Initial residual = 3.66094e-05, Final residual = 2.82625e-06, No Iterations 1
smoothSolver:  Solving for Uy, Initial residual = 0.000357933, Final residual = 2.41345e-05, No Iterations 1
smoothSolver:  Solving for Uz, Initial residual = 0.00207713, Final residual = 0.000111027, No Iterations 1
GAMG:  Solving for p, Initial residual = 0.0028817, Final residual = 9.38638e-05, No Iterations 2
time step continuity errors : sum local = 1.15587e-06, global = -1.71424e-07, cumulative = 6.84889e-06
smoothSolver:  Solving for omega, Initial residual = 1.58745e-06, Final residual = 4.65612e-08, No Iterations 2
smoothSolver:  Solving for k, Initial residual = 0.000167757, Final residual = 1.32793e-05, No Iterations 1
ExecutionTime = 29.64 s  ClockTime = 30 s

forces forcesFish write:
    Sum of forces
        Total    : (0.242652 -0.00513785 0.00199325)
        Pressure : (0.104187 -0.00575988 0.00197228)
        Viscous  : (0.138465 0.000622031 2.09716e-05)
    Sum of moments
        Total    : (-1.26462e-05 -0.000711887 0.00377856)
        Pressure : (-1.2661e-05 -0.000694647 0.00335256)
        Viscous  : (1.4821e-08 -1.724e-05 0.000425994)
    writing force and moment files.

Time = 53

smoothSolver:  Solving for Ux, Initial residual = 3.332e-05, Final residual = 2.59865e-06, No Iterations 1
smoothSolver:  Solving for Uy, Initial residual = 0.000333994, Final residual = 2.2625e-05, No Iterations 1
smoothSolver:  Solving for Uz, Initial residual = 0.00194471, Final residual = 0.000103604, No Iterations 1
GAMG:  Solving for p, Initial residual = 0.00268872, Final residual = 8.82185e-05, No Iterations 2
time step continuity errors : sum local = 1.08551e-06, global = -1.04889e-07, cumulative = 6.744e-06
smoothSolver:  Solving for omega, Initial residual = 1.4034e-06, Final residual = 4.31252e-08, No Iterations 2
smoothSolver:  Solving for k, Initial residual = 0.000139941, Final residual = 1.17298e-05, No Iterations 1
ExecutionTime = 30.17 s  ClockTime = 31 s

forces forcesFish write:
    Sum of forces
        Total    : (0.242411 -0.00518457 0.0019692)
        Pressure : (0.104125 -0.00580379 0.00194835)
        Viscous  : (0.138286 0.000619222 2.0851e-05)
    Sum of moments
        Total    : (-1.25375e-05 -0.000704942 0.00375701)
        Pressure : (-1.25529e-05 -0.00068774 0.00333194)
        Viscous  : (1.54183e-08 -1.7202e-05 0.000425068)
    writing force and moment files.

Time = 54

smoothSolver:  Solving for Ux, Initial residual = 3.06902e-05, Final residual = 2.41699e-06, No Iterations 1
smoothSolver:  Solving for Uy, Initial residual = 0.000310857, Final residual = 2.12044e-05, No Iterations 1
smoothSolver:  Solving for Uz, Initial residual = 0.00180944, Final residual = 9.6008e-05, No Iterations 1
GAMG:  Solving for p, Initial residual = 0.00250632, Final residual = 8.82086e-05, No Iterations 2
time step continuity errors : sum local = 1.08472e-06, global = -4.67489e-08, cumulative = 6.69726e-06
smoothSolver:  Solving for omega, Initial residual = 1.25564e-06, Final residual = 4.02875e-08, No Iterations 2
smoothSolver:  Solving for k, Initial residual = 0.000117194, Final residual = 1.03902e-05, No Iterations 1
ExecutionTime = 30.71 s  ClockTime = 31 s

forces forcesFish write:
    Sum of forces
        Total    : (0.242178 -0.00523026 0.00194853)
        Pressure : (0.104059 -0.00584653 0.00192776)
        Viscous  : (0.138119 0.000616268 2.07713e-05)
    Sum of moments
        Total    : (-1.25956e-05 -0.000698907 0.00373667)
        Pressure : (-1.26116e-05 -0.000681732 0.00331258)
        Viscous  : (1.60684e-08 -1.71758e-05 0.00042409)
    writing force and moment files.

Time = 55

smoothSolver:  Solving for Ux, Initial residual = 2.92368e-05, Final residual = 2.29494e-06, No Iterations 1
smoothSolver:  Solving for Uy, Initial residual = 0.000288893, Final residual = 1.99013e-05, No Iterations 1
smoothSolver:  Solving for Uz, Initial residual = 0.0016756, Final residual = 8.88957e-05, No Iterations 1
GAMG:  Solving for p, Initial residual = 0.00233745, Final residual = 8.85066e-05, No Iterations 2
time step continuity errors : sum local = 1.08797e-06, global = 5.97542e-09, cumulative = 6.70323e-06
smoothSolver:  Solving for omega, Initial residual = 1.13552e-06, Final residual = 3.78518e-08, No Iterations 2
smoothSolver:  Solving for k, Initial residual = 9.86378e-05, Final residual = 9.23006e-06, No Iterations 1
ExecutionTime = 31.21 s  ClockTime = 32 s

forces forcesFish write:
    Sum of forces
        Total    : (0.241951 -0.00527427 0.00193398)
        Pressure : (0.10399 -0.00588748 0.00191325)
        Viscous  : (0.137961 0.000613206 2.07279e-05)
    Sum of moments
        Total    : (-1.27688e-05 -0.00069455 0.00371725)
        Pressure : (-1.27856e-05 -0.000677387 0.00329418)
        Viscous  : (1.68327e-08 -1.71627e-05 0.000423072)
    writing force and moment files.

Time = 56

smoothSolver:  Solving for Ux, Initial residual = 2.82318e-05, Final residual = 2.19788e-06, No Iterations 1
smoothSolver:  Solving for Uy, Initial residual = 0.000269187, Final residual = 1.87434e-05, No Iterations 1
smoothSolver:  Solving for Uz, Initial residual = 0.00155662, Final residual = 8.28992e-05, No Iterations 1
GAMG:  Solving for p, Initial residual = 0.00218697, Final residual = 8.4008e-05, No Iterations 2
time step continuity errors : sum local = 1.03246e-06, global = 6.83471e-08, cumulative = 6.77158e-06
smoothSolver:  Solving for omega, Initial residual = 1.03701e-06, Final residual = 3.56791e-08, No Iterations 2
smoothSolver:  Solving for k, Initial residual = 8.34995e-05, Final residual = 8.22145e-06, No Iterations 1
ExecutionTime = 31.72 s  ClockTime = 32 s

forces forcesFish write:
    Sum of forces
        Total    : (0.241731 -0.00531596 0.0019264)
        Pressure : (0.103917 -0.00592601 0.00190569)
        Viscous  : (0.137814 0.00061005 2.0711e-05)
    Sum of moments
        Total    : (-1.30052e-05 -0.000692135 0.0036985)
        Pressure : (-1.30229e-05 -0.000674976 0.00327649)
        Viscous  : (1.76932e-08 -1.71594e-05 0.000422016)
    writing force and moment files.

Time = 57

smoothSolver:  Solving for Ux, Initial residual = 2.72509e-05, Final residual = 2.1058e-06, No Iterations 1
smoothSolver:  Solving for Uy, Initial residual = 0.000254311, Final residual = 1.78162e-05, No Iterations 1
smoothSolver:  Solving for Uz, Initial residual = 0.00145477, Final residual = 7.79875e-05, No Iterations 1
GAMG:  Solving for p, Initial residual = 0.00204988, Final residual = 7.51175e-05, No Iterations 2
time step continuity errors : sum local = 9.23129e-07, global = 1.291e-07, cumulative = 6.90068e-06
smoothSolver:  Solving for omega, Initial residual = 9.55268e-07, Final residual = 3.37117e-08, No Iterations 2
smoothSolver:  Solving for k, Initial residual = 7.11373e-05, Final residual = 1.42837e-06, No Iterations 2
ExecutionTime = 32.24 s  ClockTime = 33 s

forces forcesFish write:
    Sum of forces
        Total    : (0.241493 -0.00535444 0.00192595)
        Pressure : (0.10384 -0.00596115 0.00190519)
        Viscous  : (0.137653 0.000606707 2.07571e-05)
    Sum of moments
        Total    : (-1.32632e-05 -0.000691715 0.00368025)
        Pressure : (-1.32817e-05 -0.000674528 0.00325945)
        Viscous  : (1.84671e-08 -1.71868e-05 0.000420807)
    writing force and moment files.

Time = 58

smoothSolver:  Solving for Ux, Initial residual = 2.62929e-05, Final residual = 2.01633e-06, No Iterations 1
smoothSolver:  Solving for Uy, Initial residual = 0.000240976, Final residual = 1.69557e-05, No Iterations 1
smoothSolver:  Solving for Uz, Initial residual = 0.00137547, Final residual = 7.41663e-05, No Iterations 1
GAMG:  Solving for p, Initial residual = 0.00192393, Final residual = 6.24684e-05, No Iterations 2
time step continuity errors : sum local = 7.67731e-07, global = 1.69255e-07, cumulative = 7.06993e-06
smoothSolver:  Solving for omega, Initial residual = 9.17309e-07, Final residual = 3.27601e-08, No Iterations 2
smoothSolver:  Solving for k, Initial residual = 6.05215e-05, Final residual = 1.27855e-06, No Iterations 2
ExecutionTime = 32.75 s  ClockTime = 33 s

forces forcesFish write:
    Sum of forces
        Total    : (0.241263 -0.0053889 0.00193216)
        Pressure : (0.103759 -0.0059922 0.00191134)
        Viscous  : (0.137504 0.000603297 2.08254e-05)
    Sum of moments
        Total    : (-1.35139e-05 -0.000693114 0.00366258)
        Pressure : (-1.35331e-05 -0.00067589 0.00324301)
        Viscous  : (1.9237e-08 -1.72235e-05 0.00041958)
    writing force and moment files.

Time = 59

smoothSolver:  Solving for Ux, Initial residual = 2.46235e-05, Final residual = 1.8966e-06, No Iterations 1
smoothSolver:  Solving for Uy, Initial residual = 0.000227441, Final residual = 1.61219e-05, No Iterations 1
smoothSolver:  Solving for Uz, Initial residual = 0.00130789, Final residual = 7.09503e-05, No Iterations 1
GAMG:  Solving for p, Initial residual = 0.00179896, Final residual = 5.62375e-05, No Iterations 2
time step continuity errors : sum local = 6.91366e-07, global = 1.61896e-07, cumulative = 7.23183e-06
smoothSolver:  Solving for omega, Initial residual = 8.73734e-07, Final residual = 3.16362e-08, No Iterations 2
smoothSolver:  Solving for k, Initial residual = 5.18048e-05, Final residual = 1.1331e-06, No Iterations 2
ExecutionTime = 33.26 s  ClockTime = 34 s

forces forcesFish write:
    Sum of forces
        Total    : (0.241042 -0.00541826 0.00194432)
        Pressure : (0.103676 -0.00601809 0.00192341)
        Viscous  : (0.137366 0.00059983 2.09087e-05)
    Sum of moments
        Total    : (-1.37378e-05 -0.000696105 0.00364573)
        Pressure : (-1.37578e-05 -0.000678838 0.00322739)
        Viscous  : (2.00247e-08 -1.72665e-05 0.000418337)
    writing force and moment files.

Time = 60

smoothSolver:  Solving for Ux, Initial residual = 2.19549e-05, Final residual = 1.72912e-06, No Iterations 1
smoothSolver:  Solving for Uy, Initial residual = 0.000214483, Final residual = 1.53331e-05, No Iterations 1
smoothSolver:  Solving for Uz, Initial residual = 0.00124223, Final residual = 6.79149e-05, No Iterations 1
GAMG:  Solving for p, Initial residual = 0.00168015, Final residual = 5.37082e-05, No Iterations 2
time step continuity errors : sum local = 6.60712e-07, global = 1.24467e-07, cumulative = 7.3563e-06
smoothSolver:  Solving for omega, Initial residual = 8.28473e-07, Final residual = 3.03881e-08, No Iterations 2
smoothSolver:  Solving for k, Initial residual = 4.45777e-05, Final residual = 1.00132e-06, No Iterations 2
ExecutionTime = 33.82 s  ClockTime = 34 s

forces forcesFish write:
    Sum of forces
        Total    : (0.240835 -0.00543974 0.00195956)
        Pressure : (0.103595 -0.00603606 0.00193856)
        Viscous  : (0.137239 0.000596318 2.09992e-05)
    Sum of moments
        Total    : (-1.39132e-05 -0.000700009 0.00363102)
        Pressure : (-1.3934e-05 -0.000682696 0.00321393)
        Viscous  : (2.07942e-08 -1.73128e-05 0.000417082)
    writing force and moment files.

Time = 61

smoothSolver:  Solving for Ux, Initial residual = 1.95014e-05, Final residual = 1.57688e-06, No Iterations 1
smoothSolver:  Solving for Uy, Initial residual = 0.000201361, Final residual = 1.45546e-05, No Iterations 1
smoothSolver:  Solving for Uz, Initial residual = 0.00116939, Final residual = 6.4592e-05, No Iterations 1
GAMG:  Solving for p, Initial residual = 0.00156758, Final residual = 4.85705e-05, No Iterations 2
time step continuity errors : sum local = 5.98008e-07, global = 1.07893e-07, cumulative = 7.46419e-06
smoothSolver:  Solving for omega, Initial residual = 7.83135e-07, Final residual = 2.90434e-08, No Iterations 2
smoothSolver:  Solving for k, Initial residual = 3.85526e-05, Final residual = 8.83973e-07, No Iterations 2
ExecutionTime = 34.4 s  ClockTime = 35 s

forces forcesFish write:
    Sum of forces
        Total    : (0.240643 -0.00545283 0.0019744)
        Pressure : (0.103519 -0.00604561 0.00195331)
        Viscous  : (0.137123 0.000592774 2.10987e-05)
    Sum of moments
        Total    : (-1.40338e-05 -0.000703977 0.00361913)
        Pressure : (-1.40554e-05 -0.000686614 0.00320331)
        Viscous  : (2.15527e-08 -1.73632e-05 0.000415819)
    writing force and moment files.

Time = 62

smoothSolver:  Solving for Ux, Initial residual = 1.78504e-05, Final residual = 1.46629e-06, No Iterations 1
smoothSolver:  Solving for Uy, Initial residual = 0.000187386, Final residual = 1.37449e-05, No Iterations 1
smoothSolver:  Solving for Uz, Initial residual = 0.00108562, Final residual = 6.06158e-05, No Iterations 1
GAMG:  Solving for p, Initial residual = 0.00146489, Final residual = 4.6819e-05, No Iterations 2
time step continuity errors : sum local = 5.76804e-07, global = 9.43651e-08, cumulative = 7.55855e-06
smoothSolver:  Solving for omega, Initial residual = 7.38402e-07, Final residual = 2.76343e-08, No Iterations 2
smoothSolver:  Solving for k, Initial residual = 3.35011e-05, Final residual = 7.79851e-07, No Iterations 2
ExecutionTime = 34.99 s  ClockTime = 35 s

forces forcesFish write:
    Sum of forces
        Total    : (0.240466 -0.00545919 0.00198735)
        Pressure : (0.103449 -0.0060484 0.00196614)
        Viscous  : (0.137017 0.000589206 2.12081e-05)
    Sum of moments
        Total    : (-1.41117e-05 -0.000707573 0.00360972)
        Pressure : (-1.41341e-05 -0.000690155 0.00319517)
        Viscous  : (2.2396e-08 -1.74178e-05 0.00041455)
    writing force and moment files.

Time = 63

smoothSolver:  Solving for Ux, Initial residual = 1.69004e-05, Final residual = 1.38799e-06, No Iterations 1
smoothSolver:  Solving for Uy, Initial residual = 0.000173506, Final residual = 1.2928e-05, No Iterations 1
smoothSolver:  Solving for Uz, Initial residual = 0.000999886, Final residual = 5.63928e-05, No Iterations 1
GAMG:  Solving for p, Initial residual = 0.00136966, Final residual = 4.83494e-05, No Iterations 2
time step continuity errors : sum local = 5.95864e-07, global = 6.19164e-08, cumulative = 7.62047e-06
smoothSolver:  Solving for omega, Initial residual = 6.94539e-07, Final residual = 2.61757e-08, No Iterations 2
smoothSolver:  Solving for k, Initial residual = 2.9215e-05, Final residual = 6.87466e-07, No Iterations 2
ExecutionTime = 35.6 s  ClockTime = 36 s

forces forcesFish write:
    Sum of forces
        Total    : (0.240304 -0.00546055 0.00199853)
        Pressure : (0.103384 -0.00604619 0.00197721)
        Viscous  : (0.13692 0.000585639 2.13182e-05)
    Sum of moments
        Total    : (-1.4165e-05 -0.00071076 0.00360206)
        Pressure : (-1.41883e-05 -0.000693287 0.00318877)
        Viscous  : (2.33467e-08 -1.74728e-05 0.000413282)
    writing force and moment files.

Time = 64

smoothSolver:  Solving for Ux, Initial residual = 1.63198e-05, Final residual = 1.3298e-06, No Iterations 1
smoothSolver:  Solving for Uy, Initial residual = 0.000161074, Final residual = 1.21883e-05, No Iterations 1
smoothSolver:  Solving for Uz, Initial residual = 0.000923761, Final residual = 5.25096e-05, No Iterations 1
GAMG:  Solving for p, Initial residual = 0.00128032, Final residual = 4.7523e-05, No Iterations 2
[...]
        Pressure : (-1.76907e-05 -0.000907691 0.00355647)
        Viscous  : (1.06902e-07 -1.77691e-05 0.000379939)
    writing force and moment files.

Time = 137

smoothSolver:  Solving for Ux, Initial residual = 4.77195e-07, Final residual = 3.01728e-08, No Iterations 1
smoothSolver:  Solving for Uy, Initial residual = 4.05915e-06, Final residual = 3.04961e-07, No Iterations 1
smoothSolver:  Solving for Uz, Initial residual = 2.06186e-05, Final residual = 1.41134e-06, No Iterations 1
GAMG:  Solving for p, Initial residual = 2.42072e-05, Final residual = 1.58242e-06, No Iterations 2
time step continuity errors : sum local = 1.94843e-08, global = -7.46522e-09, cumulative = 7.31627e-06
smoothSolver:  Solving for omega, Initial residual = 1.00493e-08, Final residual = 1.44073e-09, No Iterations 1
smoothSolver:  Solving for k, Initial residual = 2.68176e-08, Final residual = 1.97644e-09, No Iterations 1
ExecutionTime = 76.7 s  ClockTime = 77 s

forces forcesFish write:
    Sum of forces
        Total    : (0.238769 -0.00393452 0.00257451)
        Pressure : (0.102605 -0.0044351 0.00255192)
        Viscous  : (0.136164 0.000500587 2.25915e-05)
    Sum of moments
        Total    : (-1.76178e-05 -0.000927537 0.00393708)
        Pressure : (-1.77246e-05 -0.000909764 0.00355712)
        Viscous  : (1.06843e-07 -1.77731e-05 0.000379958)
    writing force and moment files.

Time = 138

smoothSolver:  Solving for Ux, Initial residual = 4.39536e-07, Final residual = 2.79645e-08, No Iterations 1
smoothSolver:  Solving for Uy, Initial residual = 3.82239e-06, Final residual = 2.86734e-07, No Iterations 1
smoothSolver:  Solving for Uz, Initial residual = 1.9646e-05, Final residual = 1.33745e-06, No Iterations 1
GAMG:  Solving for p, Initial residual = 2.31493e-05, Final residual = 1.53573e-06, No Iterations 2
time step continuity errors : sum local = 1.89094e-08, global = -7.22252e-09, cumulative = 7.30904e-06
smoothSolver:  Solving for omega, Initial residual = 7.67158e-09, Final residual = 7.67158e-09, No Iterations 0
smoothSolver:  Solving for k, Initial residual = 2.5703e-08, Final residual = 1.88826e-09, No Iterations 1
ExecutionTime = 77.27 s  ClockTime = 78 s

forces forcesFish write:
    Sum of forces
        Total    : (0.238771 -0.00393328 0.00257976)
        Pressure : (0.102607 -0.00443393 0.00255716)
        Viscous  : (0.136164 0.000500647 2.26008e-05)
    Sum of moments
        Total    : (-1.76497e-05 -0.000929454 0.00393767)
        Pressure : (-1.77565e-05 -0.000911678 0.00355769)
        Viscous  : (1.06804e-07 -1.77756e-05 0.000379978)
    writing force and moment files.

Time = 139

smoothSolver:  Solving for Ux, Initial residual = 3.84311e-07, Final residual = 2.50804e-08, No Iterations 1
smoothSolver:  Solving for Uy, Initial residual = 3.60789e-06, Final residual = 2.69711e-07, No Iterations 1
smoothSolver:  Solving for Uz, Initial residual = 1.87613e-05, Final residual = 1.2699e-06, No Iterations 1
GAMG:  Solving for p, Initial residual = 2.21601e-05, Final residual = 1.49594e-06, No Iterations 2
time step continuity errors : sum local = 1.84194e-08, global = -6.19392e-09, cumulative = 7.30285e-06
smoothSolver:  Solving for omega, Initial residual = 8.43715e-09, Final residual = 8.43715e-09, No Iterations 0
smoothSolver:  Solving for k, Initial residual = 2.46713e-08, Final residual = 1.81144e-09, No Iterations 1
ExecutionTime = 77.79 s  ClockTime = 78 s

forces forcesFish write:
    Sum of forces
        Total    : (0.238773 -0.00393221 0.00258453)
        Pressure : (0.102608 -0.0044329 0.00256191)
        Viscous  : (0.136165 0.000500694 2.26137e-05)
    Sum of moments
        Total    : (-1.76792e-05 -0.000931196 0.00393819)
        Pressure : (-1.7786e-05 -0.000913416 0.0035582)
        Viscous  : (1.06747e-07 -1.77795e-05 0.000379994)
    writing force and moment files.

Time = 140

smoothSolver:  Solving for Ux, Initial residual = 3.17935e-07, Final residual = 2.16979e-08, No Iterations 1
smoothSolver:  Solving for Uy, Initial residual = 3.41552e-06, Final residual = 2.54062e-07, No Iterations 1
smoothSolver:  Solving for Uz, Initial residual = 1.79317e-05, Final residual = 1.2065e-06, No Iterations 1
GAMG:  Solving for p, Initial residual = 2.11328e-05, Final residual = 1.40966e-06, No Iterations 2
time step continuity errors : sum local = 1.73567e-08, global = -5.15459e-09, cumulative = 7.2977e-06
smoothSolver:  Solving for omega, Initial residual = 9.16722e-09, Final residual = 9.16722e-09, No Iterations 0
smoothSolver:  Solving for k, Initial residual = 2.36988e-08, Final residual = 1.73159e-09, No Iterations 1
ExecutionTime = 78.31 s  ClockTime = 79 s

forces forcesFish write:
    Sum of forces
        Total    : (0.238775 -0.00393123 0.00258874)
        Pressure : (0.10261 -0.00443197 0.00256612)
        Viscous  : (0.136165 0.000500743 2.26215e-05)
    Sum of moments
        Total    : (-1.77061e-05 -0.000932739 0.00393866)
        Pressure : (-1.78128e-05 -0.000914957 0.00355865)
        Viscous  : (1.06719e-07 -1.77815e-05 0.000380011)
    writing force and moment files.

Time = 141

smoothSolver:  Solving for Ux, Initial residual = 2.72083e-07, Final residual = 1.90885e-08, No Iterations 1
smoothSolver:  Solving for Uy, Initial residual = 3.23167e-06, Final residual = 2.38516e-07, No Iterations 1
smoothSolver:  Solving for Uz, Initial residual = 1.71249e-05, Final residual = 1.14324e-06, No Iterations 1
GAMG:  Solving for p, Initial residual = 2.00856e-05, Final residual = 1.32699e-06, No Iterations 2
time step continuity errors : sum local = 1.63386e-08, global = -4.44357e-09, cumulative = 7.29325e-06
smoothSolver:  Solving for omega, Initial residual = 9.85757e-09, Final residual = 9.85757e-09, No Iterations 0
smoothSolver:  Solving for k, Initial residual = 2.27818e-08, Final residual = 1.65083e-09, No Iterations 1
ExecutionTime = 78.82 s  ClockTime = 79 s

forces forcesFish write:
    Sum of forces
        Total    : (0.238776 -0.0039303 0.00259233)
        Pressure : (0.102611 -0.00443108 0.00256969)
        Viscous  : (0.136165 0.000500782 2.26341e-05)
    Sum of moments
        Total    : (-1.773e-05 -0.000934065 0.0039391)
        Pressure : (-1.78367e-05 -0.00091628 0.00355908)
        Viscous  : (1.06664e-07 -1.77853e-05 0.000380024)
    writing force and moment files.

Time = 142

smoothSolver:  Solving for Ux, Initial residual = 2.46834e-07, Final residual = 1.74218e-08, No Iterations 1
smoothSolver:  Solving for Uy, Initial residual = 3.04734e-06, Final residual = 2.22588e-07, No Iterations 1
smoothSolver:  Solving for Uz, Initial residual = 1.63293e-05, Final residual = 1.07817e-06, No Iterations 1
GAMG:  Solving for p, Initial residual = 1.90293e-05, Final residual = 1.27158e-06, No Iterations 2
time step continuity errors : sum local = 1.56562e-08, global = -3.61528e-09, cumulative = 7.28964e-06
smoothSolver:  Solving for omega, Initial residual = 1.05006e-08, Final residual = 1.47273e-09, No Iterations 1
smoothSolver:  Solving for k, Initial residual = 2.17511e-08, Final residual = 1.48463e-09, No Iterations 1
ExecutionTime = 79.41 s  ClockTime = 80 s

forces forcesFish write:
    Sum of forces
        Total    : (0.238777 -0.0039294 0.00259537)
        Pressure : (0.102612 -0.00443023 0.00257273)
        Viscous  : (0.136166 0.000500823 2.26396e-05)
    Sum of moments
        Total    : (-1.77512e-05 -0.000935201 0.00393951)
        Pressure : (-1.78579e-05 -0.000917415 0.00355947)
        Viscous  : (1.0665e-07 -1.77864e-05 0.000380038)
    writing force and moment files.

Time = 143

smoothSolver:  Solving for Ux, Initial residual = 2.29403e-07, Final residual = 1.61504e-08, No Iterations 1
smoothSolver:  Solving for Uy, Initial residual = 2.86393e-06, Final residual = 2.06449e-07, No Iterations 1
smoothSolver:  Solving for Uz, Initial residual = 1.55664e-05, Final residual = 1.01141e-06, No Iterations 1
GAMG:  Solving for p, Initial residual = 1.79965e-05, Final residual = 1.23596e-06, No Iterations 2
time step continuity errors : sum local = 1.52174e-08, global = -2.38078e-09, cumulative = 7.28726e-06
smoothSolver:  Solving for omega, Initial residual = 7.58753e-09, Final residual = 7.58753e-09, No Iterations 0
smoothSolver:  Solving for k, Initial residual = 2.09224e-08, Final residual = 1.40733e-09, No Iterations 1
ExecutionTime = 79.97 s  ClockTime = 80 s

forces forcesFish write:
    Sum of forces
        Total    : (0.238778 -0.00392855 0.00259798)
        Pressure : (0.102612 -0.00442941 0.00257532)
        Viscous  : (0.136166 0.000500854 2.2652e-05)
    Sum of moments
        Total    : (-1.77702e-05 -0.000936182 0.00393989)
        Pressure : (-1.78768e-05 -0.000918392 0.00355984)
        Viscous  : (1.06597e-07 -1.77903e-05 0.000380049)
    writing force and moment files.

Time = 144

smoothSolver:  Solving for Ux, Initial residual = 2.16354e-07, Final residual = 1.51315e-08, No Iterations 1
smoothSolver:  Solving for Uy, Initial residual = 2.68954e-06, Final residual = 1.90887e-07, No Iterations 1
smoothSolver:  Solving for Uz, Initial residual = 1.48336e-05, Final residual = 9.45729e-07, No Iterations 1
GAMG:  Solving for p, Initial residual = 1.69885e-05, Final residual = 1.19981e-06, No Iterations 2
time step continuity errors : sum local = 1.47723e-08, global = -8.18099e-10, cumulative = 7.28644e-06
smoothSolver:  Solving for omega, Initial residual = 8.12205e-09, Final residual = 8.12205e-09, No Iterations 0
smoothSolver:  Solving for k, Initial residual = 2.01054e-08, Final residual = 1.33389e-09, No Iterations 1
ExecutionTime = 80.49 s  ClockTime = 81 s

forces forcesFish write:
    Sum of forces
        Total    : (0.238779 -0.00392776 0.00260027)
        Pressure : (0.102613 -0.00442865 0.00257762)
        Viscous  : (0.136166 0.000500888 2.26549e-05)
    Sum of moments
        Total    : (-1.77875e-05 -0.000937054 0.00394024)
        Pressure : (-1.78941e-05 -0.000919264 0.00356018)
        Viscous  : (1.06597e-07 -1.77904e-05 0.000380061)
    writing force and moment files.

Time = 145

smoothSolver:  Solving for Ux, Initial residual = 2.10655e-07, Final residual = 1.44557e-08, No Iterations 1
smoothSolver:  Solving for Uy, Initial residual = 2.53209e-06, Final residual = 1.76576e-07, No Iterations 1
smoothSolver:  Solving for Uz, Initial residual = 1.41409e-05, Final residual = 8.83646e-07, No Iterations 1
GAMG:  Solving for p, Initial residual = 1.60208e-05, Final residual = 1.147e-06, No Iterations 2
time step continuity errors : sum local = 1.41221e-08, global = 7.14238e-10, cumulative = 7.28715e-06
smoothSolver:  Solving for omega, Initial residual = 8.63707e-09, Final residual = 8.63707e-09, No Iterations 0
smoothSolver:  Solving for k, Initial residual = 1.92776e-08, Final residual = 1.25856e-09, No Iterations 1
ExecutionTime = 80.99 s  ClockTime = 81 s

forces forcesFish write:
    Sum of forces
        Total    : (0.23878 -0.00392704 0.00260233)
        Pressure : (0.102613 -0.00442795 0.00257966)
        Viscous  : (0.136167 0.000500913 2.26655e-05)
    Sum of moments
        Total    : (-1.78035e-05 -0.000937839 0.00394056)
        Pressure : (-1.79101e-05 -0.000920046 0.00356049)
        Viscous  : (1.06556e-07 -1.77937e-05 0.000380069)
    writing force and moment files.

Time = 146

smoothSolver:  Solving for Ux, Initial residual = 2.07426e-07, Final residual = 1.39328e-08, No Iterations 1
smoothSolver:  Solving for Uy, Initial residual = 2.39915e-06, Final residual = 1.63918e-07, No Iterations 1
smoothSolver:  Solving for Uz, Initial residual = 1.3477e-05, Final residual = 8.2528e-07, No Iterations 1
GAMG:  Solving for p, Initial residual = 1.50817e-05, Final residual = 1.06365e-06, No Iterations 2
time step continuity errors : sum local = 1.30957e-08, global = 2.40217e-09, cumulative = 7.28955e-06
smoothSolver:  Solving for omega, Initial residual = 9.11101e-09, Final residual = 9.11101e-09, No Iterations 0
smoothSolver:  Solving for k, Initial residual = 1.84489e-08, Final residual = 1.18277e-09, No Iterations 1
ExecutionTime = 81.49 s  ClockTime = 82 s

forces forcesFish write:
    Sum of forces
        Total    : (0.238781 -0.00392638 0.00260421)
        Pressure : (0.102614 -0.00442732 0.00258154)
        Viscous  : (0.136167 0.000500941 2.26696e-05)
    Sum of moments
        Total    : (-1.78185e-05 -0.000938561 0.00394085)
        Pressure : (-1.7925e-05 -0.000920766 0.00356077)
        Viscous  : (1.06547e-07 -1.77944e-05 0.000380079)
    writing force and moment files.

Time = 147

smoothSolver:  Solving for Ux, Initial residual = 2.04704e-07, Final residual = 1.34702e-08, No Iterations 1
smoothSolver:  Solving for Uy, Initial residual = 2.28461e-06, Final residual = 1.52897e-07, No Iterations 1
smoothSolver:  Solving for Uz, Initial residual = 1.28455e-05, Final residual = 7.71301e-07, No Iterations 1
GAMG:  Solving for p, Initial residual = 1.42061e-05, Final residual = 9.74392e-07, No Iterations 2
time step continuity errors : sum local = 1.19968e-08, global = 3.56585e-09, cumulative = 7.29312e-06
smoothSolver:  Solving for omega, Initial residual = 9.55546e-09, Final residual = 9.55546e-09, No Iterations 0
smoothSolver:  Solving for k, Initial residual = 1.7634e-08, Final residual = 1.10951e-09, No Iterations 1
ExecutionTime = 82.04 s  ClockTime = 82 s

forces forcesFish write:
    Sum of forces
        Total    : (0.238782 -0.00392581 0.00260594)
        Pressure : (0.102615 -0.00442677 0.00258326)
        Viscous  : (0.136167 0.000500962 2.26761e-05)
    Sum of moments
        Total    : (-1.78325e-05 -0.000939228 0.00394111)
        Pressure : (-1.7939e-05 -0.000921432 0.00356102)
        Viscous  : (1.06527e-07 -1.77961e-05 0.000380087)
    writing force and moment files.

Time = 148

smoothSolver:  Solving for Ux, Initial residual = 1.98615e-07, Final residual = 1.29149e-08, No Iterations 1
smoothSolver:  Solving for Uy, Initial residual = 2.17743e-06, Final residual = 1.42993e-07, No Iterations 1
smoothSolver:  Solving for Uz, Initial residual = 1.2216e-05, Final residual = 7.21755e-07, No Iterations 1
GAMG:  Solving for p, Initial residual = 1.33752e-05, Final residual = 8.64898e-07, No Iterations 2
time step continuity errors : sum local = 1.06487e-08, global = 4.09908e-09, cumulative = 7.29722e-06
smoothSolver:  Solving for omega, Initial residual = 9.9695e-09, Final residual = 9.9695e-09, No Iterations 0
smoothSolver:  Solving for k, Initial residual = 1.68356e-08, Final residual = 1.04042e-09, No Iterations 1
ExecutionTime = 82.67 s  ClockTime = 83 s

forces forcesFish write:
    Sum of forces
        Total    : (0.238783 -0.0039253 0.00260755)
        Pressure : (0.102615 -0.00442628 0.00258487)
        Viscous  : (0.136167 0.000500983 2.26813e-05)
    Sum of moments
        Total    : (-1.78457e-05 -0.000939851 0.00394134)
        Pressure : (-1.79522e-05 -0.000922054 0.00356124)
        Viscous  : (1.06511e-07 -1.77973e-05 0.000380094)
    writing force and moment files.

Time = 149

smoothSolver:  Solving for Ux, Initial residual = 1.88147e-07, Final residual = 1.22146e-08, No Iterations 1
smoothSolver:  Solving for Uy, Initial residual = 2.07392e-06, Final residual = 1.34014e-07, No Iterations 1
smoothSolver:  Solving for Uz, Initial residual = 1.15939e-05, Final residual = 6.76469e-07, No Iterations 1
GAMG:  Solving for p, Initial residual = 1.25838e-05, Final residual = 7.62288e-07, No Iterations 2
time step continuity errors : sum local = 9.38539e-09, global = 3.63095e-09, cumulative = 7.30085e-06
smoothSolver:  Solving for omega, Initial residual = 1.0355e-08, Final residual = 1.43269e-09, No Iterations 1
smoothSolver:  Solving for k, Initial residual = 1.60519e-08, Final residual = 9.12939e-10, No Iterations 1
ExecutionTime = 83.2 s  ClockTime = 84 s

forces forcesFish write:
    Sum of forces
        Total    : (0.238783 -0.00392487 0.00260907)
        Pressure : (0.102616 -0.00442587 0.00258638)
        Viscous  : (0.136168 0.000501001 2.26857e-05)
    Sum of moments
        Total    : (-1.78582e-05 -0.000940439 0.00394154)
        Pressure : (-1.79647e-05 -0.000922641 0.00356144)
        Viscous  : (1.065e-07 -1.77983e-05 0.000380101)
    writing force and moment files.

Time = 150

smoothSolver:  Solving for Ux, Initial residual = 1.79191e-07, Final residual = 1.15119e-08, No Iterations 1
smoothSolver:  Solving for Uy, Initial residual = 1.97432e-06, Final residual = 1.25939e-07, No Iterations 1
smoothSolver:  Solving for Uz, Initial residual = 1.09846e-05, Final residual = 6.35651e-07, No Iterations 1
GAMG:  Solving for p, Initial residual = 1.1891e-05, Final residual = 7.20842e-07, No Iterations 2
time step continuity errors : sum local = 8.87516e-09, global = 2.48827e-09, cumulative = 7.30334e-06
smoothSolver:  Solving for omega, Initial residual = 7.17664e-09, Final residual = 7.17664e-09, No Iterations 0
smoothSolver:  Solving for k, Initial residual = 1.52998e-08, Final residual = 8.59425e-10, No Iterations 1
ExecutionTime = 83.69 s  ClockTime = 84 s

forces forcesFish write:
    Sum of forces
        Total    : (0.238784 -0.0039245 0.00261049)
        Pressure : (0.102617 -0.00442552 0.0025878)
        Viscous  : (0.136168 0.000501017 2.26905e-05)
    Sum of moments
        Total    : (-1.78701e-05 -0.000940991 0.00394172)
        Pressure : (-1.79765e-05 -0.000923192 0.00356162)
        Viscous  : (1.06485e-07 -1.77994e-05 0.000380107)
    writing force and moment files.

Time = 151

smoothSolver:  Solving for Ux, Initial residual = 1.79984e-07, Final residual = 1.11368e-08, No Iterations 1
smoothSolver:  Solving for Uy, Initial residual = 1.8801e-06, Final residual = 1.1885e-07, No Iterations 1
smoothSolver:  Solving for Uz, Initial residual = 1.03837e-05, Final residual = 5.98803e-07, No Iterations 1
GAMG:  Solving for p, Initial residual = 1.1253e-05, Final residual = 6.49372e-07, No Iterations 2
time step continuity errors : sum local = 7.9953e-09, global = 1.86893e-09, cumulative = 7.30521e-06
smoothSolver:  Solving for omega, Initial residual = 7.49735e-09, Final residual = 7.49735e-09, No Iterations 0
smoothSolver:  Solving for k, Initial residual = 1.45859e-08, Final residual = 8.15606e-10, No Iterations 1
ExecutionTime = 84.23 s  ClockTime = 85 s

forces forcesFish write:
    Sum of forces
        Total    : (0.238785 -0.00392417 0.00261178)
        Pressure : (0.102617 -0.0044252 0.00258909)
        Viscous  : (0.136168 0.000501032 2.26946e-05)
    Sum of moments
        Total    : (-1.7881e-05 -0.000941499 0.00394188)
        Pressure : (-1.79874e-05 -0.000923699 0.00356177)
        Viscous  : (1.06472e-07 -1.78004e-05 0.000380112)
    writing force and moment files.

Time = 152

smoothSolver:  Solving for Ux, Initial residual = 1.81285e-07, Final residual = 1.08056e-08, No Iterations 1
smoothSolver:  Solving for Uy, Initial residual = 1.78586e-06, Final residual = 1.12267e-07, No Iterations 1
smoothSolver:  Solving for Uz, Initial residual = 9.7717e-06, Final residual = 5.63212e-07, No Iterations 1
GAMG:  Solving for p, Initial residual = 1.06185e-05, Final residual = 5.94373e-07, No Iterations 2
time step continuity errors : sum local = 7.31822e-09, global = 1.93701e-09, cumulative = 7.30714e-06
smoothSolver:  Solving for omega, Initial residual = 7.79796e-09, Final residual = 7.79796e-09, No Iterations 0
smoothSolver:  Solving for k, Initial residual = 1.39008e-08, Final residual = 7.73543e-10, No Iterations 1
ExecutionTime = 84.76 s  ClockTime = 85 s


SIMPLE solution converged in 152 iterations

forces forcesFish write:
    Sum of forces
        Total    : (0.238786 -0.00392386 0.00261294)
        Pressure : (0.102618 -0.0044249 0.00259024)
        Viscous  : (0.136168 0.000501045 2.26985e-05)
    Sum of moments
        Total    : (-1.78908e-05 -0.000941956 0.00394203)
        Pressure : (-1.79972e-05 -0.000924155 0.00356191)
        Viscous  : (1.06459e-07 -1.78013e-05 0.000380117)
    writing force and moment files.

End

