/*---------------------------------------------------------------------------*\
| =========                 |                                                 |
| \\      /  F ield         | OpenFOAM: The Open Source CFD Toolbox           |
|  \\    /   O peration     | Version:  2512                                  |
|   \\  /    A nd           | Website:  www.openfoam.com                      |
|    \\/     M anipulation  |                                                 |
\*---------------------------------------------------------------------------*/
Build  : _bd2b6720-20260127 OPENFOAM=2512 version=2512
Arch   : "LSB;label=32;scalar=64"
Exec   : simpleFoam
Date   : Mar 28 2026
Time   : 17:47:29
Host   : mathias-laptop
PID    : 11451
I/O    : uncollated
Case   : /home/mat/OpenFOAM/mat-run/speed_sweep_runs/U_0p6
nProcs : 1
trapFpe: Floating point exception trapping enabled (FOAM_SIGFPE).
memory pool : not available
fileModificationChecking : Monitoring run-time modified files using timeStampMaster (fileModificationSkew 5, maxFileModificationPolls 20)
allowSystemOperations : Allowing user-supplied system call operations

// * * * * * * * * * * * * * * * * * * * * * * * * * * * * * * * * * * * * * //
Create time

Create mesh for time = 0


SIMPLE: convergence criteria
    field p	 tolerance 0.0001
    field U	 tolerance 1e-05
    field "(k|omega)"	 tolerance 1e-05

Reading field p

Reading field U

Reading/calculating face flux field phi

Selecting incompressible transport model Newtonian
Selecting turbulence model type RAS
Selecting RAS turbulence model kOmegaSST
Selecting patchDistMethod meshWave
RAS
{
    RASModel        kOmegaSST;
    turbulence      on;
    printCoeffs     on;
    alphaK1         0.85;
    alphaK2         1;
    alphaOmega1     0.5;
    alphaOmega2     0.856;
    gamma1          0.555556;
    gamma2          0.44;
    beta1           0.075;
    beta2           0.0828;
    betaStar        0.09;
    a1              0.31;
    b1              1;
    c1              10;
    F3              false;
    decayControl    false;
    kInf            0;
    omegaInf        0;
}

No MRF models present

No finite volume options present

Starting time loop

forces forcesFish:
    rho: rhoInf
    Freestream density (rhoInf) set to 1000
    Not including porosity effects

Time = 1

smoothSolver:  Solving for Ux, Initial residual = 0.999999, Final residual = 0.0265476, No Iterations 2
smoothSolver:  Solving for Uy, Initial residual = 1, Final residual = 0.0442619, No Iterations 2
smoothSolver:  Solving for Uz, Initial residual = 1, Final residual = 0.0384605, No Iterations 2
GAMG:  Solving for p, Initial residual = 1, Final residual = 0.0530772, No Iterations 5
time step continuity errors : sum local = 9.08802e-06, global = -1.0356e-06, cumulative = -1.0356e-06
smoothSolver:  Solving for omega, Initial residual = 0.00886808, Final residual = 0.000379057, No Iterations 1
bounding omega, min: -18.876 max: 11487.6 average: 123.944
smoothSolver:  Solving for k, Initial residual = 1, Final residual = 0.0434469, No Iterations 1
ExecutionTime = 1.95 s  ClockTime = 2 s

forces forcesFish write:
    Sum of forces
        Total    : (0.804002 0.112908 -0.000118067)
        Pressure : (0.67846 0.112754 -0.000117671)
        Viscous  : (0.125542 0.000154437 -3.96617e-07)
    Sum of moments
        Total    : (-0.000128309 0.000325131 0.0496309)
        Pressure : (-0.000128138 0.000326155 0.0494934)
        Viscous  : (-1.70373e-07 -1.02422e-06 0.000137405)
    writing force and moment files.

Time = 2

smoothSolver:  Solving for Ux, Initial residual = 0.0159418, Final residual = 0.00078767, No Iterations 2
smoothSolver:  Solving for Uy, Initial residual = 0.0888516, Final residual = 0.0067281, No Iterations 2
smoothSolver:  Solving for Uz, Initial residual = 0.356654, Final residual = 0.0287646, No Iterations 2
GAMG:  Solving for p, Initial residual = 0.205604, Final residual = 0.0168062, No Iterations 3
time step continuity errors : sum local = 1.76429e-05, global = -1.06864e-06, cumulative = -2.10425e-06
smoothSolver:  Solving for omega, Initial residual = 0.0051112, Final residual = 0.000215958, No Iterations 1
smoothSolver:  Solving for k, Initial residual = 0.424371, Final residual = 0.0195363, No Iterations 1
ExecutionTime = 2.55 s  ClockTime = 2 s

forces forcesFish write:
    Sum of forces
        Total    : (0.976713 0.149586 0.000543432)
        Pressure : (0.854722 0.149512 0.000549561)
        Viscous  : (0.12199 7.44274e-05 -6.12903e-06)
    Sum of moments
        Total    : (-0.000146077 0.000142488 0.0628229)
        Pressure : (-0.000146252 0.000145333 0.0627378)
        Viscous  : (1.75286e-07 -2.84494e-06 8.51507e-05)
    writing force and moment files.

Time = 3

smoothSolver:  Solving for Ux, Initial residual = 0.0041245, Final residual = 0.000210454, No Iterations 2
smoothSolver:  Solving for Uy, Initial residual = 0.0411802, Final residual = 0.0030568, No Iterations 2
smoothSolver:  Solving for Uz, Initial residual = 0.213713, Final residual = 0.0168759, No Iterations 2
GAMG:  Solving for p, Initial residual = 0.508308, Final residual = 0.0192118, No Iterations 3
time step continuity errors : sum local = 1.2646e-05, global = -1.21958e-06, cumulative = -3.32383e-06
smoothSolver:  Solving for omega, Initial residual = 0.0034497, Final residual = 0.000154523, No Iterations 1
smoothSolver:  Solving for k, Initial residual = 0.246774, Final residual = 0.0118688, No Iterations 1
ExecutionTime = 3.13 s  ClockTime = 3 s

forces forcesFish write:
    Sum of forces
        Total    : (0.912051 0.140416 -0.000632535)
        Pressure : (0.792652 0.140423 -0.000622449)
        Viscous  : (0.119399 -7.39167e-06 -1.00857e-05)
    Sum of moments
        Total    : (-0.000125302 0.000297903 0.0573346)
        Pressure : (-0.000125816 0.000301967 0.0573059)
        Viscous  : (5.13966e-07 -4.06353e-06 2.86663e-05)
    writing force and moment files.

Time = 4

smoothSolver:  Solving for Ux, Initial residual = 0.00223501, Final residual = 0.000111684, No Iterations 2
smoothSolver:  Solving for Uy, Initial residual = 0.0222599, Final residual = 0.00161965, No Iterations 2
smoothSolver:  Solving for Uz, Initial residual = 0.13297, Final residual = 0.0102832, No Iterations 2
GAMG:  Solving for p, Initial residual = 0.196728, Final residual = 0.00884238, No Iterations 3
time step continuity errors : sum local = 2.10233e-05, global = -1.24791e-06, cumulative = -4.57174e-06
smoothSolver:  Solving for omega, Initial residual = 0.00248368, Final residual = 0.00011646, No Iterations 1
smoothSolver:  Solving for k, Initial residual = 0.163118, Final residual = 0.0081156, No Iterations 1
ExecutionTime = 3.72 s  ClockTime = 3 s

forces forcesFish write:
    Sum of forces
        Total    : (0.722188 0.105163 -0.00254212)
        Pressure : (0.604909 0.105247 -0.00253369)
        Viscous  : (0.117279 -8.41756e-05 -8.43499e-06)
    Sum of moments
        Total    : (-8.11018e-05 0.000618353 0.0417661)
        Pressure : (-8.18032e-05 0.000623912 0.0417858)
        Viscous  : (7.01431e-07 -5.55864e-06 -1.97621e-05)
    writing force and moment files.

Time = 5

smoothSolver:  Solving for Ux, Initial residual = 0.00138181, Final residual = 6.61101e-05, No Iterations 2
smoothSolver:  Solving for Uy, Initial residual = 0.0124268, Final residual = 0.000878763, No Iterations 2
smoothSolver:  Solving for Uz, Initial residual = 0.080631, Final residual = 0.00603232, No Iterations 2
GAMG:  Solving for p, Initial residual = 0.0958245, Final residual = 0.00495303, No Iterations 3
time step continuity errors : sum local = 2.52285e-05, global = -9.6173e-07, cumulative = -5.53347e-06
smoothSolver:  Solving for omega, Initial residual = 0.00186418, Final residual = 9.04664e-05, No Iterations 1
smoothSolver:  Solving for k, Initial residual = 0.116766, Final residual = 0.00597004, No Iterations 1
ExecutionTime = 4.32 s  ClockTime = 4 s

forces forcesFish write:
    Sum of forces
        Total    : (0.490603 0.061224 -0.003952)
        Pressure : (0.375063 0.0613662 -0.00394635)
        Viscous  : (0.11554 -0.000142134 -5.64948e-06)
    Sum of moments
        Total    : (-2.85314e-05 0.00087342 0.0230787)
        Pressure : (-2.92626e-05 0.000879165 0.0231289)
        Viscous  : (7.31181e-07 -5.74462e-06 -5.02681e-05)
    writing force and moment files.

Time = 6

smoothSolver:  Solving for Ux, Initial residual = 0.000959064, Final residual = 4.03531e-05, No Iterations 2
smoothSolver:  Solving for Uy, Initial residual = 0.00687462, Final residual = 0.00040911, No Iterations 2
smoothSolver:  Solving for Uz, Initial residual = 0.0442348, Final residual = 0.00269388, No Iterations 2
GAMG:  Solving for p, Initial residual = 0.0527696, Final residual = 0.0029514, No Iterations 3
time step continuity errors : sum local = 2.35422e-05, global = -4.37604e-07, cumulative = -5.97107e-06
smoothSolver:  Solving for omega, Initial residual = 0.00144362, Final residual = 7.19191e-05, No Iterations 1
smoothSolver:  Solving for k, Initial residual = 0.0883131, Final residual = 0.00461912, No Iterations 1
ExecutionTime = 4.92 s  ClockTime = 5 s

forces forcesFish write:
    Sum of forces
        Total    : (0.27875 0.0217083 -0.00415993)
        Pressure : (0.164647 0.0218853 -0.00415682)
        Viscous  : (0.114103 -0.000176948 -3.11406e-06)
    Sum of moments
        Total    : (2.08167e-05 0.000911627 0.00648635)
        Pressure : (2.01751e-05 0.00091635 0.0065484)
        Viscous  : (6.41645e-07 -4.72291e-06 -6.2048e-05)
    writing force and moment files.

Time = 7

smoothSolver:  Solving for Ux, Initial residual = 0.00079524, Final residual = 2.72023e-05, No Iterations 2
smoothSolver:  Solving for Uy, Initial residual = 0.00518062, Final residual = 0.000185418, No Iterations 2
smoothSolver:  Solving for Uz, Initial residual = 0.0364185, Final residual = 0.0013605, No Iterations 2
GAMG:  Solving for p, Initial residual = 0.0323638, Final residual = 0.00175003, No Iterations 3
time step continuity errors : sum local = 1.81933e-05, global = 1.71822e-07, cumulative = -5.79925e-06
smoothSolver:  Solving for omega, Initial residual = 0.0011462, Final residual = 5.82816e-05, No Iterations 1
smoothSolver:  Solving for k, Initial residual = 0.06956, Final residual = 0.00371074, No Iterations 1
ExecutionTime = 5.5 s  ClockTime = 5 s

forces forcesFish write:
    Sum of forces
        Total    : (0.122525 -0.00573458 -0.00324249)
        Pressure : (0.00962911 -0.00553914 -0.00324813)
        Viscous  : (0.112896 -0.000195434 5.6344e-06)
    Sum of moments
        Total    : (5.85796e-05 0.000741314 -0.00498757)
        Pressure : (5.81841e-05 0.000747188 -0.00492602)
        Viscous  : (3.95449e-07 -5.87413e-06 -6.15482e-05)
    writing force and moment files.

Time = 8

smoothSolver:  Solving for Ux, Initial residual = 0.000748613, Final residual = 2.46916e-05, No Iterations 2
smoothSolver:  Solving for Uy, Initial residual = 0.00669424, Final residual = 0.000331891, No Iterations 2
smoothSolver:  Solving for Uz, Initial residual = 0.063626, Final residual = 0.00374774, No Iterations 2
GAMG:  Solving for p, Initial residual = 0.0248695, Final residual = 0.00237454, No Iterations 2
time step continuity errors : sum local = 2.82119e-05, global = 5.6126e-07, cumulative = -5.23799e-06
smoothSolver:  Solving for omega, Initial residual = 0.000928862, Final residual = 4.80441e-05, No Iterations 1
smoothSolver:  Solving for k, Initial residual = 0.056541, Final residual = 0.00306908, No Iterations 1
ExecutionTime = 6.1 s  ClockTime = 6 s

forces forcesFish write:
    Sum of forces
        Total    : (0.0411615 -0.0178809 -0.00272618)
        Pressure : (-0.0706941 -0.0176798 -0.00273317)
        Viscous  : (0.111856 -0.000201122 6.99145e-06)
    Sum of moments
        Total    : (7.22931e-05 0.000632489 -0.0100584)
        Pressure : (7.20807e-05 0.000636885 -0.0100039)
        Viscous  : (2.12425e-07 -4.39581e-06 -5.44207e-05)
    writing force and moment files.

Time = 9

smoothSolver:  Solving for Ux, Initial residual = 0.000728554, Final residual = 2.40496e-05, No Iterations 2
smoothSolver:  Solving for Uy, Initial residual = 0.00790265, Final residual = 0.000435924, No Iterations 2
smoothSolver:  Solving for Uz, Initial residual = 0.083273, Final residual = 0.00531677, No Iterations 2
GAMG:  Solving for p, Initial residual = 0.0267419, Final residual = 0.001998, No Iterations 2
time step continuity errors : sum local = 2.44031e-05, global = 1.24724e-06, cumulative = -3.99075e-06
smoothSolver:  Solving for omega, Initial residual = 0.000765094, Final residual = 4.01502e-05, No Iterations 1
smoothSolver:  Solving for k, Initial residual = 0.047038, Final residual = 0.00259254, No Iterations 1
ExecutionTime = 6.66 s  ClockTime = 6 s

forces forcesFish write:
    Sum of forces
        Total    : (0.015822 -0.018337 -0.00143016)
        Pressure : (-0.0951002 -0.0181469 -0.0014372)
        Viscous  : (0.110922 -0.000190156 7.03659e-06)
    Sum of moments
        Total    : (7.56214e-05 0.000374692 -0.0103022)
        Pressure : (7.55519e-05 0.000377714 -0.0102592)
        Viscous  : (6.94971e-08 -3.02184e-06 -4.30241e-05)
    writing force and moment files.

Time = 10

smoothSolver:  Solving for Ux, Initial residual = 0.000700778, Final residual = 2.23897e-05, No Iterations 2
smoothSolver:  Solving for Uy, Initial residual = 0.00801706, Final residual = 0.00044824, No Iterations 2
smoothSolver:  Solving for Uz, Initial residual = 0.0786885, Final residual = 0.0050467, No Iterations 2
GAMG:  Solving for p, Initial residual = 0.0311859, Final residual = 0.00244171, No Iterations 2
time step continuity errors : sum local = 2.8841e-05, global = 1.96229e-06, cumulative = -2.02846e-06
smoothSolver:  Solving for omega, Initial residual = 0.000638584, Final residual = 3.39437e-05, No Iterations 1
smoothSolver:  Solving for k, Initial residual = 0.039865, Final residual = 0.00222707, No Iterations 1
ExecutionTime = 7.21 s  ClockTime = 7 s

forces forcesFish write:
    Sum of forces
        Total    : (0.0281264 -0.0112479 0.000230431)
        Pressure : (-0.0818937 -0.0110849 0.000220786)
        Viscous  : (0.11002 -0.000163052 9.64508e-06)
    Sum of moments
        Total    : (7.00836e-05 6.12107e-05 -0.00740409)
        Pressure : (7.01237e-05 6.46383e-05 -0.00737432)
        Viscous  : (-4.0055e-08 -3.42761e-06 -2.97717e-05)
    writing force and moment files.

Time = 11

smoothSolver:  Solving for Ux, Initial residual = 0.00064726, Final residual = 1.95588e-05, No Iterations 2
smoothSolver:  Solving for Uy, Initial residual = 0.0071933, Final residual = 0.000382527, No Iterations 2
smoothSolver:  Solving for Uz, Initial residual = 0.0641433, Final residual = 0.00390492, No Iterations 2
GAMG:  Solving for p, Initial residual = 0.0341693, Final residual = 0.00278212, No Iterations 2
time step continuity errors : sum local = 3.03425e-05, global = 2.51196e-06, cumulative = 4.83499e-07
smoothSolver:  Solving for omega, Initial residual = 0.000538814, Final residual = 2.89834e-05, No Iterations 1
smoothSolver:  Solving for k, Initial residual = 0.0342844, Final residual = 0.00193842, No Iterations 1
ExecutionTime = 7.76 s  ClockTime = 7 s

forces forcesFish write:
    Sum of forces
        Total    : (0.0627108 -0.000332192 0.00176089)
        Pressure : (-0.0463666 -0.000207982 0.0017497)
        Viscous  : (0.109077 -0.00012421 1.11931e-05)
    Sum of moments
        Total    : (5.73982e-05 -0.000199083 -0.00289)
        Pressure : (5.74678e-05 -0.000195001 -0.00287278)
        Viscous  : (-6.95999e-08 -4.08189e-06 -1.72179e-05)
    writing force and moment files.

Time = 12

smoothSolver:  Solving for Ux, Initial residual = 0.000574708, Final residual = 1.60267e-05, No Iterations 2
smoothSolver:  Solving for Uy, Initial residual = 0.00597438, Final residual = 0.000267856, No Iterations 2
smoothSolver:  Solving for Uz, Initial residual = 0.0483768, Final residual = 0.00249475, No Iterations 2
GAMG:  Solving for p, Initial residual = 0.0355232, Final residual = 0.00301554, No Iterations 2
time step continuity errors : sum local = 2.91329e-05, global = 2.81744e-06, cumulative = 3.30094e-06
smoothSolver:  Solving for omega, Initial residual = 0.00045879, Final residual = 2.49435e-05, No Iterations 1
smoothSolver:  Solving for k, Initial residual = 0.0298213, Final residual = 0.0017041, No Iterations 1
ExecutionTime = 8.32 s  ClockTime = 8 s

forces forcesFish write:
    Sum of forces
        Total    : (0.104942 0.0106526 0.00264614)
        Pressure : (-0.00314103 0.0107307 0.00263481)
        Viscous  : (0.108083 -7.81097e-05 1.13276e-05)
    Sum of moments
        Total    : (4.02643e-05 -0.000303134 0.00175769)
        Pressure : (4.02874e-05 -0.000298461 0.00176387)
        Viscous  : (-2.30752e-08 -4.67245e-06 -6.17619e-06)
    writing force and moment files.

Time = 13

smoothSolver:  Solving for Ux, Initial residual = 0.0005023, Final residual = 1.30015e-05, No Iterations 2
smoothSolver:  Solving for Uy, Initial residual = 0.00522739, Final residual = 0.000181275, No Iterations 2
smoothSolver:  Solving for Uz, Initial residual = 0.0374579, Final residual = 0.00133153, No Iterations 2
GAMG:  Solving for p, Initial residual = 0.0352895, Final residual = 0.00302294, No Iterations 2
time step continuity errors : sum local = 2.52157e-05, global = 2.86892e-06, cumulative = 6.16986e-06
smoothSolver:  Solving for omega, Initial residual = 0.000393804, Final residual = 2.16186e-05, No Iterations 1
smoothSolver:  Solving for k, Initial residual = 0.0261872, Final residual = 0.00151048, No Iterations 1
ExecutionTime = 8.86 s  ClockTime = 9 s

forces forcesFish write:
    Sum of forces
        Total    : (0.143365 0.0189867 0.00266191)
        Pressure : (0.036322 0.0190163 0.00265235)
        Viscous  : (0.107043 -2.9524e-05 9.55784e-06)
    Sum of moments
        Total    : (2.17223e-05 -0.000220387 0.0054575)
        Pressure : (2.16406e-05 -0.000215634 0.00545433)
        Viscous  : (8.1677e-08 -4.75303e-06 3.17414e-06)
    writing force and moment files.

Time = 14

smoothSolver:  Solving for Ux, Initial residual = 0.000440285, Final residual = 1.12786e-05, No Iterations 2
smoothSolver:  Solving for Uy, Initial residual = 0.00544293, Final residual = 0.000201517, No Iterations 2
smoothSolver:  Solving for Uz, Initial residual = 0.0403046, Final residual = 0.00160075, No Iterations 2
GAMG:  Solving for p, Initial residual = 0.0355916, Final residual = 0.00277305, No Iterations 2
time step continuity errors : sum local = 1.99608e-05, global = 2.68495e-06, cumulative = 8.85481e-06
smoothSolver:  Solving for omega, Initial residual = 0.000340183, Final residual = 1.88386e-05, No Iterations 1
smoothSolver:  Solving for k, Initial residual = 0.0231642, Final residual = 0.00134697, No Iterations 1
ExecutionTime = 9.44 s  ClockTime = 9 s

forces forcesFish write:
    Sum of forces
        Total    : (0.17116 0.0233913 0.00188817)
        Pressure : (0.0651636 0.0233837 0.00188178)
        Viscous  : (0.105996 7.56419e-06 6.38824e-06)
    Sum of moments
        Total    : (5.16208e-06 1.4471e-05 0.00766344)
        Pressure : (4.9556e-06 1.87465e-05 0.00765591)
        Viscous  : (2.06471e-07 -4.27558e-06 7.5218e-06)
    writing force and moment files.

Time = 15

smoothSolver:  Solving for Ux, Initial residual = 0.000390701, Final residual = 1.02866e-05, No Iterations 2
smoothSolver:  Solving for Uy, Initial residual = 0.00588766, Final residual = 0.000244489, No Iterations 2
smoothSolver:  Solving for Uz, Initial residual = 0.0458157, Final residual = 0.00215895, No Iterations 2
GAMG:  Solving for p, Initial residual = 0.0370901, Final residual = 0.00247061, No Iterations 2
time step continuity errors : sum local = 1.58367e-05, global = 2.43089e-06, cumulative = 1.12857e-05
smoothSolver:  Solving for omega, Initial residual = 0.000295353, Final residual = 1.64784e-05, No Iterations 1
smoothSolver:  Solving for k, Initial residual = 0.0206272, Final residual = 0.00120784, No Iterations 1
ExecutionTime = 9.99 s  ClockTime = 10 s

forces forcesFish write:
    Sum of forces
        Total    : (0.18607 0.0240444 0.000650979)
        Pressure : (0.0811003 0.0240093 0.000647088)
        Viscous  : (0.10497 3.51004e-05 3.89086e-06)
    Sum of moments
        Total    : (-6.2987e-06 0.000322985 0.00836257)
        Pressure : (-6.60342e-06 0.000326867 0.00835328)
        Viscous  : (3.04722e-07 -3.88185e-06 9.28295e-06)
    writing force and moment files.

Time = 16

smoothSolver:  Solving for Ux, Initial residual = 0.000352692, Final residual = 9.34592e-06, No Iterations 2
smoothSolver:  Solving for Uy, Initial residual = 0.0060754, Final residual = 0.000260443, No Iterations 2
smoothSolver:  Solving for Uz, Initial residual = 0.0445158, Final residual = 0.00216533, No Iterations 2
GAMG:  Solving for p, Initial residual = 0.0395406, Final residual = 0.0025233, No Iterations 2
time step continuity errors : sum local = 1.53027e-05, global = 2.11339e-06, cumulative = 1.33991e-05
smoothSolver:  Solving for omega, Initial residual = 0.000257444, Final residual = 1.44491e-05, No Iterations 1
smoothSolver:  Solving for k, Initial residual = 0.018456, Final residual = 0.00108721, No Iterations 1
ExecutionTime = 10.55 s  ClockTime = 10 s

forces forcesFish write:
    Sum of forces
        Total    : (0.190084 0.022145 -0.00072054)
        Pressure : (0.0860939 0.0220921 -0.000721955)
        Viscous  : (0.10399 5.2944e-05 1.41513e-06)
    Sum of moments
        Total    : (-1.19016e-05 0.000632891 0.00794431)
        Pressure : (-1.22836e-05 0.000636118 0.007935)
        Viscous  : (3.81947e-07 -3.22753e-06 9.30935e-06)
    writing force and moment files.

Time = 17

smoothSolver:  Solving for Ux, Initial residual = 0.000319095, Final residual = 8.36585e-06, No Iterations 2
smoothSolver:  Solving for Uy, Initial residual = 0.00586768, Final residual = 0.000241744, No Iterations 2
smoothSolver:  Solving for Uz, Initial residual = 0.0378176, Final residual = 0.00174423, No Iterations 2
GAMG:  Solving for p, Initial residual = 0.0400933, Final residual = 0.00254464, No Iterations 2
time step continuity errors : sum local = 1.54783e-05, global = 1.44762e-06, cumulative = 1.48467e-05
smoothSolver:  Solving for omega, Initial residual = 0.000225079, Final residual = 1.26864e-05, No Iterations 1
smoothSolver:  Solving for k, Initial residual = 0.0165976, Final residual = 0.000982841, No Iterations 1
ExecutionTime = 11.13 s  ClockTime = 11 s

forces forcesFish write:
    Sum of forces
        Total    : (0.187112 0.018812 -0.00210983)
        Pressure : (0.0840433 0.0187489 -0.00210947)
        Viscous  : (0.103069 6.30956e-05 -3.68554e-07)
    Sum of moments
        Total    : (-1.27397e-05 0.000917608 0.00684813)
        Pressure : (-1.31663e-05 0.000920204 0.00683956)
        Viscous  : (4.26552e-07 -2.59663e-06 8.57503e-06)
    writing force and moment files.

Time = 18

smoothSolver:  Solving for Ux, Initial residual = 0.000289138, Final residual = 7.39162e-06, No Iterations 2
smoothSolver:  Solving for Uy, Initial residual = 0.00535024, Final residual = 0.000197075, No Iterations 2
smoothSolver:  Solving for Uz, Initial residual = 0.0298772, Final residual = 0.00119178, No Iterations 2
GAMG:  Solving for p, Initial residual = 0.0371924, Final residual = 0.00232853, No Iterations 2
time step continuity errors : sum local = 1.4799e-05, global = 6.82025e-07, cumulative = 1.55287e-05
smoothSolver:  Solving for omega, Initial residual = 0.000197279, Final residual = 1.11506e-05, No Iterations 1
smoothSolver:  Solving for k, Initial residual = 0.0149757, Final residual = 0.000890834, No Iterations 1
ExecutionTime = 11.67 s  ClockTime = 11 s

forces forcesFish write:
    Sum of forces
        Total    : (0.180371 0.0150897 -0.00333163)
        Pressure : (0.0781588 0.0150211 -0.00333052)
        Viscous  : (0.102212 6.85932e-05 -1.11396e-06)
    Sum of moments
        Total    : (-9.15742e-06 0.00114118 0.00547483)
        Pressure : (-9.59191e-06 0.00114339 0.00546687)
        Viscous  : (4.34491e-07 -2.21388e-06 7.95829e-06)
    writing force and moment files.

Time = 19

smoothSolver:  Solving for Ux, Initial residual = 0.000263954, Final residual = 6.49237e-06, No Iterations 2
smoothSolver:  Solving for Uy, Initial residual = 0.00467719, Final residual = 0.000140792, No Iterations 2
smoothSolver:  Solving for Uz, Initial residual = 0.0236153, Final residual = 0.000706818, No Iterations 2
GAMG:  Solving for p, Initial residual = 0.0321138, Final residual = 0.0019552, No Iterations 2
time step continuity errors : sum local = 1.32877e-05, global = -7.32302e-08, cumulative = 1.54555e-05
smoothSolver:  Solving for omega, Initial residual = 0.000173303, Final residual = 9.81257e-06, No Iterations 1
smoothSolver:  Solving for k, Initial residual = 0.0135684, Final residual = 0.000810286, No Iterations 1
ExecutionTime = 12.22 s  ClockTime = 12 s

forces forcesFish write:
    Sum of forces
        Total    : (0.172673 0.0119212 -0.00418486)
        Pressure : (0.0712555 0.011849 -0.00418398)
        Viscous  : (0.101418 7.21271e-05 -8.87728e-07)
    Sum of moments
        Total    : (-2.05371e-06 0.00127021 0.00418621)
        Pressure : (-2.4625e-06 0.00127233 0.00417831)
        Viscous  : (4.08793e-07 -2.12529e-06 7.89793e-06)
    writing force and moment files.

Time = 20

smoothSolver:  Solving for Ux, Initial residual = 0.000238393, Final residual = 5.69967e-06, No Iterations 2
smoothSolver:  Solving for Uy, Initial residual = 0.0041947, Final residual = 0.000107073, No Iterations 2
smoothSolver:  Solving for Uz, Initial residual = 0.0214048, Final residual = 0.00060872, No Iterations 2
GAMG:  Solving for p, Initial residual = 0.0264681, Final residual = 0.00157184, No Iterations 2
time step continuity errors : sum local = 1.1467e-05, global = -6.70165e-07, cumulative = 1.47853e-05
smoothSolver:  Solving for omega, Initial residual = 0.000152555, Final residual = 8.64787e-06, No Iterations 1
smoothSolver:  Solving for k, Initial residual = 0.0123211, Final residual = 0.000738237, No Iterations 1
ExecutionTime = 12.78 s  ClockTime = 13 s

forces forcesFish write:
    Sum of forces
        Total    : (0.166016 0.00987234 -0.00457356)
        Pressure : (0.0653375 0.00979657 -0.00457205)
        Viscous  : (0.100679 7.5767e-05 -1.51203e-06)
    Sum of moments
        Total    : (7.04837e-06 0.00129744 0.00322346)
        Pressure : (6.6565e-06 0.0012991 0.00321495)
        Viscous  : (3.91869e-07 -1.65922e-06 8.50113e-06)
    writing force and moment files.

Time = 21

smoothSolver:  Solving for Ux, Initial residual = 0.000210628, Final residual = 5.02085e-06, No Iterations 2
smoothSolver:  Solving for Uy, Initial residual = 0.00400683, Final residual = 0.000106576, No Iterations 2
smoothSolver:  Solving for Uz, Initial residual = 0.0209722, Final residual = 0.000701875, No Iterations 2
GAMG:  Solving for p, Initial residual = 0.0223122, Final residual = 0.00132215, No Iterations 2
time step continuity errors : sum local = 1.02246e-05, global = -1.23153e-06, cumulative = 1.35538e-05
smoothSolver:  Solving for omega, Initial residual = 0.000134527, Final residual = 7.63353e-06, No Iterations 1
smoothSolver:  Solving for k, Initial residual = 0.0112236, Final residual = 0.000674304, No Iterations 1
ExecutionTime = 13.36 s  ClockTime = 13 s

forces forcesFish write:
    Sum of forces
        Total    : (0.161405 0.00904174 -0.00451313)
        Pressure : (0.0614178 0.00896038 -0.00451268)
        Viscous  : (0.099987 8.13518e-05 -4.49937e-07)
    Sum of moments
        Total    : (1.60566e-05 0.00123583 0.0026738)
        Pressure : (1.57126e-05 0.00123776 0.00266386)
        Viscous  : (3.44029e-07 -1.9242e-06 9.93494e-06)
    writing force and moment files.

Time = 22

smoothSolver:  Solving for Ux, Initial residual = 0.000183441, Final residual = 4.48362e-06, No Iterations 2
smoothSolver:  Solving for Uy, Initial residual = 0.00391273, Final residual = 0.000112306, No Iterations 2
smoothSolver:  Solving for Uz, Initial residual = 0.0203707, Final residual = 0.000761097, No Iterations 2
GAMG:  Solving for p, Initial residual = 0.0200732, Final residual = 0.00122832, No Iterations 2
time step continuity errors : sum local = 9.87096e-06, global = -1.71832e-06, cumulative = 1.18355e-05
smoothSolver:  Solving for omega, Initial residual = 0.000118773, Final residual = 6.74633e-06, No Iterations 1
smoothSolver:  Solving for k, Initial residual = 0.0102401, Final residual = 0.000616524, No Iterations 1
ExecutionTime = 13.92 s  ClockTime = 14 s

forces forcesFish write:
    Sum of forces
        Total    : (0.158882 0.00915222 -0.00412196)
        Pressure : (0.0595478 0.00906245 -0.00412052)
        Viscous  : (0.0993347 8.97726e-05 -1.44306e-06)
    Sum of moments
        Total    : (2.34594e-05 0.00111687 0.00248909)
        Pressure : (2.31224e-05 0.00111833 0.00247689)
        Viscous  : (3.37039e-07 -1.45659e-06 1.21962e-05)
    writing force and moment files.

Time = 23

smoothSolver:  Solving for Ux, Initial residual = 0.00015948, Final residual = 3.96953e-06, No Iterations 2
smoothSolver:  Solving for Uy, Initial residual = 0.0038164, Final residual = 0.000110196, No Iterations 2
smoothSolver:  Solving for Uz, Initial residual = 0.0191849, Final residual = 0.000726423, No Iterations 2
GAMG:  Solving for p, Initial residual = 0.0188559, Final residual = 0.0011901, No Iterations 2
time step continuity errors : sum local = 9.74229e-06, global = -2.0409e-06, cumulative = 9.79459e-06
smoothSolver:  Solving for omega, Initial residual = 0.000104947, Final residual = 5.96983e-06, No Iterations 1
smoothSolver:  Solving for k, Initial residual = 0.0093613, Final residual = 0.000564492, No Iterations 1
ExecutionTime = 14.48 s  ClockTime = 14 s

forces forcesFish write:
    Sum of forces
        Total    : (0.157828 0.00983613 -0.00350373)
        Pressure : (0.0591129 0.00973587 -0.00350363)
        Viscous  : (0.0987148 0.000100267 -9.65206e-08)
    Sum of moments
        Total    : (2.89336e-05 0.000961233 0.0025584)
        Pressure : (2.86352e-05 0.00096323 0.00254359)
        Viscous  : (2.98354e-07 -1.99713e-06 1.48038e-05)
    writing force and moment files.

Time = 24

smoothSolver:  Solving for Ux, Initial residual = 0.000141672, Final residual = 3.47618e-06, No Iterations 2
smoothSolver:  Solving for Uy, Initial residual = 0.00368957, Final residual = 9.98939e-05, No Iterations 2
smoothSolver:  Solving for Uz, Initial residual = 0.0175564, Final residual = 0.000615665, No Iterations 2
GAMG:  Solving for p, Initial residual = 0.0177832, Final residual = 0.00109803, No Iterations 2
time step continuity errors : sum local = 9.00938e-06, global = -2.15832e-06, cumulative = 7.63627e-06
smoothSolver:  Solving for omega, Initial residual = 9.27577e-05, Final residual = 5.2857e-06, No Iterations 1
smoothSolver:  Solving for k, Initial residual = 0.00856616, Final residual = 0.000517073, No Iterations 1
ExecutionTime = 15.07 s  ClockTime = 15 s

forces forcesFish write:
    Sum of forces
        Total    : (0.15754 0.0107777 -0.00274774)
        Pressure : (0.0594192 0.0106647 -0.00274728)
        Viscous  : (0.0981209 0.00011304 -4.63063e-07)
    Sum of moments
        Total    : (3.23918e-05 0.000789061 0.00277584)
        Pressure : (3.20916e-05 0.00079098 0.00275803)
        Viscous  : (3.00184e-07 -1.91901e-06 1.78061e-05)
    writing force and moment files.

Time = 25

smoothSolver:  Solving for Ux, Initial residual = 0.000130516, Final residual = 3.03984e-06, No Iterations 2
smoothSolver:  Solving for Uy, Initial residual = 0.00356742, Final residual = 8.71087e-05, No Iterations 2
smoothSolver:  Solving for Uz, Initial residual = 0.0155531, Final residual = 0.000456382, No Iterations 2
GAMG:  Solving for p, Initial residual = 0.0171986, Final residual = 0.000982087, No Iterations 2
time step continuity errors : sum local = 7.97254e-06, global = -2.11751e-06, cumulative = 5.51876e-06
smoothSolver:  Solving for omega, Initial residual = 8.19663e-05, Final residual = 4.67958e-06, No Iterations 1
smoothSolver:  Solving for k, Initial residual = 0.00784596, Final residual = 0.000473848, No Iterations 1
ExecutionTime = 15.62 s  ClockTime = 15 s

forces forcesFish write:
    Sum of forces
        Total    : (0.157409 0.0116516 -0.00197521)
        Pressure : (0.0598619 0.0115242 -0.0019764)
        Viscous  : (0.0975474 0.000127396 1.19128e-06)
    Sum of moments
        Total    : (3.34924e-05 0.000626211 0.00303432)
        Pressure : (3.32147e-05 0.000628921 0.00301327)
        Viscous  : (2.77653e-07 -2.71028e-06 2.1045e-05)
    writing force and moment files.

Time = 26

smoothSolver:  Solving for Ux, Initial residual = 0.000122941, Final residual = 2.67694e-06, No Iterations 2
smoothSolver:  Solving for Uy, Initial residual = 0.00348103, Final residual = 7.88462e-05, No Iterations 2
smoothSolver:  Solving for Uz, Initial residual = 0.0139904, Final residual = 0.000331277, No Iterations 2
GAMG:  Solving for p, Initial residual = 0.0164743, Final residual = 0.000875132, No Iterations 2
time step continuity errors : sum local = 6.96268e-06, global = -1.94347e-06, cumulative = 3.57529e-06
smoothSolver:  Solving for omega, Initial residual = 7.2379e-05, Final residual = 4.13994e-06, No Iterations 1
smoothSolver:  Solving for k, Initial residual = 0.00718952, Final residual = 0.000434228, No Iterations 1
ExecutionTime = 16.17 s  ClockTime = 16 s

forces forcesFish write:
    Sum of forces
        Total    : (0.157 0.0122097 -0.00132571)
        Pressure : (0.0600054 0.0120672 -0.00132774)
        Viscous  : (0.0969942 0.000142542 2.02791e-06)
    Sum of moments
        Total    : (3.25214e-05 0.000502434 0.00324523)
        Pressure : (3.22452e-05 0.000505624 0.00322084)
        Viscous  : (2.76114e-07 -3.18974e-06 2.43863e-05)
    writing force and moment files.

Time = 27

smoothSolver:  Solving for Ux, Initial residual = 0.000117664, Final residual = 2.40077e-06, No Iterations 2
smoothSolver:  Solving for Uy, Initial residual = 0.00338478, Final residual = 7.64534e-05, No Iterations 2
smoothSolver:  Solving for Uz, Initial residual = 0.0129914, Final residual = 0.00027891, No Iterations 2
GAMG:  Solving for p, Initial residual = 0.0154235, Final residual = 0.000799289, No Iterations 2
time step continuity errors : sum local = 6.20512e-06, global = -1.67559e-06, cumulative = 1.8997e-06
smoothSolver:  Solving for omega, Initial residual = 6.38268e-05, Final residual = 3.65944e-06, No Iterations 1
smoothSolver:  Solving for k, Initial residual = 0.00658763, Final residual = 0.000397726, No Iterations 1
ExecutionTime = 16.72 s  ClockTime = 16 s

forces forcesFish write:
    Sum of forces
        Total    : (0.156113 0.0123477 -0.000897578)
        Pressure : (0.0596519 0.01219 -0.000901089)
        Viscous  : (0.0964609 0.000157631 3.51179e-06)
    Sum of moments
        Total    : (3.01896e-05 0.000436155 0.00335829)
        Pressure : (2.9923e-05 0.00044006 0.0033306)
        Viscous  : (2.66597e-07 -3.90489e-06 2.76886e-05)
    writing force and moment files.

Time = 28

smoothSolver:  Solving for Ux, Initial residual = 0.000112198, Final residual = 2.17691e-06, No Iterations 2
smoothSolver:  Solving for Uy, Initial residual = 0.00324811, Final residual = 7.59652e-05, No Iterations 2
smoothSolver:  Solving for Uz, Initial residual = 0.0121785, Final residual = 0.000274123, No Iterations 2
GAMG:  Solving for p, Initial residual = 0.0142527, Final residual = 0.000754577, No Iterations 2
time step continuity errors : sum local = 5.72096e-06, global = -1.34881e-06, cumulative = 5.50891e-07
smoothSolver:  Solving for omega, Initial residual = 5.61798e-05, Final residual = 3.23134e-06, No Iterations 1
smoothSolver:  Solving for k, Initial residual = 0.00603556, Final residual = 0.000364112, No Iterations 1
ExecutionTime = 17.29 s  ClockTime = 17 s

forces forcesFish write:
    Sum of forces
        Total    : (0.154779 0.0121021 -0.000724815)
        Pressure : (0.0588299 0.0119299 -0.000728658)
        Viscous  : (0.0959494 0.000172143 3.84392e-06)
    Sum of moments
        Total    : (2.74075e-05 0.000430759 0.00336453)
        Pressure : (2.71343e-05 0.00043489 0.00333365)
        Viscous  : (2.73207e-07 -4.13062e-06 3.08812e-05)
    writing force and moment files.

Time = 29

smoothSolver:  Solving for Ux, Initial residual = 0.000104749, Final residual = 1.98019e-06, No Iterations 2
smoothSolver:  Solving for Uy, Initial residual = 0.00307754, Final residual = 7.43989e-05, No Iterations 2
smoothSolver:  Solving for Uz, Initial residual = 0.011192, Final residual = 0.00026766, No Iterations 2
GAMG:  Solving for p, Initial residual = 0.0133315, Final residual = 0.000722101, No Iterations 2
time step continuity errors : sum local = 5.37338e-06, global = -9.84201e-07, cumulative = -4.3331e-07
smoothSolver:  Solving for omega, Initial residual = 4.93346e-05, Final residual = 2.84887e-06, No Iterations 1
smoothSolver:  Solving for k, Initial residual = 0.00552355, Final residual = 0.000332842, No Iterations 1
ExecutionTime = 17.86 s  ClockTime = 18 s

forces forcesFish write:
    Sum of forces
        Total    : (0.153152 0.0115906 -0.000783184)
        Pressure : (0.0576918 0.0114049 -0.000787327)
        Viscous  : (0.0954607 0.00018567 4.14327e-06)
    Sum of moments
        Total    : (2.49187e-05 0.000477558 0.0032833)
        Pressure : (2.46407e-05 0.000481856 0.00324941)
        Viscous  : (2.78005e-07 -4.29753e-06 3.38868e-05)
    writing force and moment files.

Time = 30

smoothSolver:  Solving for Ux, Initial residual = 9.64205e-05, Final residual = 9.63562e-06, No Iterations 1
smoothSolver:  Solving for Uy, Initial residual = 0.00288253, Final residual = 7.01056e-05, No Iterations 2
smoothSolver:  Solving for Uz, Initial residual = 0.0100389, Final residual = 0.000238994, No Iterations 2
GAMG:  Solving for p, Initial residual = 0.0124241, Final residual = 0.000698472, No Iterations 2
time step continuity errors : sum local = 5.1355e-06, global = -6.11694e-07, cumulative = -1.045e-06
smoothSolver:  Solving for omega, Initial residual = 4.31895e-05, Final residual = 2.50561e-06, No Iterations 1
smoothSolver:  Solving for k, Initial residual = 0.00505112, Final residual = 0.000303934, No Iterations 1
ExecutionTime = 18.43 s  ClockTime = 18 s

forces forcesFish write:
    Sum of forces
        Total    : (0.151507 0.0109567 -0.00102394)
        Pressure : (0.0564827 0.0107585 -0.00102818)
        Viscous  : (0.0950244 0.000198183 4.23458e-06)
    Sum of moments
        Total    : (2.31398e-05 0.000564158 0.00315177)
        Pressure : (2.28566e-05 0.0005685 0.00311491)
        Viscous  : (2.8319e-07 -4.34192e-06 3.68573e-05)
    writing force and moment files.

Time = 31

smoothSolver:  Solving for Ux, Initial residual = 8.95277e-05, Final residual = 1.67948e-06, No Iterations 2
smoothSolver:  Solving for Uy, Initial residual = 0.00269667, Final residual = 6.2585e-05, No Iterations 2
smoothSolver:  Solving for Uz, Initial residual = 0.00891152, Final residual = 0.000192521, No Iterations 2
GAMG:  Solving for p, Initial residual = 0.0114655, Final residual = 0.000660467, No Iterations 2
time step continuity errors : sum local = 4.82968e-06, global = -1.94026e-07, cumulative = -1.23903e-06
smoothSolver:  Solving for omega, Initial residual = 3.76973e-05, Final residual = 2.20216e-06, No Iterations 1
smoothSolver:  Solving for k, Initial residual = 0.00460931, Final residual = 0.000276865, No Iterations 1
ExecutionTime = 18.99 s  ClockTime = 19 s

forces forcesFish write:
    Sum of forces
        Total    : (0.149866 0.0102578 -0.0013976)
        Pressure : (0.0552856 0.0100485 -0.00140178)
        Viscous  : (0.0945804 0.000209336 4.18699e-06)
    Sum of moments
        Total    : (2.22828e-05 0.000678895 0.0029824)
        Pressure : (2.19967e-05 0.000683197 0.002943)
        Viscous  : (2.86066e-07 -4.30192e-06 3.94032e-05)
    writing force and moment files.

Time = 32

smoothSolver:  Solving for Ux, Initial residual = 8.31914e-05, Final residual = 1.54622e-06, No Iterations 2
smoothSolver:  Solving for Uy, Initial residual = 0.00257844, Final residual = 5.36133e-05, No Iterations 2
smoothSolver:  Solving for Uz, Initial residual = 0.00806122, Final residual = 0.000151893, No Iterations 2
GAMG:  Solving for p, Initial residual = 0.0105303, Final residual = 0.000609211, No Iterations 2
time step continuity errors : sum local = 4.45075e-06, global = 1.8279e-07, cumulative = -1.05624e-06
smoothSolver:  Solving for omega, Initial residual = 3.2785e-05, Final residual = 1.93253e-06, No Iterations 1
smoothSolver:  Solving for k, Initial residual = 0.00419823, Final residual = 0.000251684, No Iterations 1
ExecutionTime = 19.54 s  ClockTime = 19 s

forces forcesFish write:
    Sum of forces
        Total    : (0.148404 0.0095939 -0.0018405)
        Pressure : (0.054245 0.00937439 -0.00184441)
        Viscous  : (0.0941587 0.00021951 3.91006e-06)
    Sum of moments
        Total    : (2.24426e-05 0.00080552 0.00280525)
        Pressure : (2.21532e-05 0.000809673 0.00276347)
        Viscous  : (2.89365e-07 -4.15283e-06 4.17789e-05)
    writing force and moment files.

Time = 33

smoothSolver:  Solving for Ux, Initial residual = 7.96193e-05, Final residual = 7.87048e-06, No Iterations 1
smoothSolver:  Solving for Uy, Initial residual = 0.00252296, Final residual = 0.000244945, No Iterations 1
smoothSolver:  Solving for Uz, Initial residual = 0.00753749, Final residual = 0.000735441, No Iterations 1
GAMG:  Solving for p, Initial residual = 0.00955006, Final residual = 0.000544201, No Iterations 2
time step continuity errors : sum local = 3.98404e-06, global = 4.60175e-07, cumulative = -5.96065e-07
smoothSolver:  Solving for omega, Initial residual = 2.83891e-05, Final residual = 1.69183e-06, No Iterations 1
smoothSolver:  Solving for k, Initial residual = 0.0038134, Final residual = 0.000228158, No Iterations 1
ExecutionTime = 20.07 s  ClockTime = 20 s

forces forcesFish write:
    Sum of forces
        Total    : (0.147259 0.0090502 -0.00227273)
        Pressure : (0.0534749 0.00882293 -0.00227616)
        Viscous  : (0.0937844 0.000227267 3.42866e-06)
    Sum of moments
        Total    : (2.3378e-05 0.000924156 0.00265071)
        Pressure : (2.30827e-05 0.000928066 0.00260704)
        Viscous  : (2.95297e-07 -3.91059e-06 4.36622e-05)
    writing force and moment files.

Time = 34

smoothSolver:  Solving for Ux, Initial residual = 7.72355e-05, Final residual = 7.5648e-06, No Iterations 1
smoothSolver:  Solving for Uy, Initial residual = 0.00249832, Final residual = 0.000232588, No Iterations 1
smoothSolver:  Solving for Uz, Initial residual = 0.00723347, Final residual = 0.000710596, No Iterations 1
GAMG:  Solving for p, Initial residual = 0.00881143, Final residual = 0.000488835, No Iterations 2
time step continuity errors : sum local = 3.59105e-06, global = 6.77709e-07, cumulative = 8.16443e-08
smoothSolver:  Solving for omega, Initial residual = 2.44816e-05, Final residual = 1.47943e-06, No Iterations 1
smoothSolver:  Solving for k, Initial residual = 0.00345219, Final residual = 0.000206151, No Iterations 1
ExecutionTime = 20.62 s  ClockTime = 20 s

forces forcesFish write:
    Sum of forces
        Total    : (0.146401 0.00865544 -0.002646)
        Pressure : (0.0529724 0.00842082 -0.00264909)
        Viscous  : (0.0934288 0.000234621 3.08674e-06)
    Sum of moments
        Total    : (2.48923e-05 0.00102338 0.00253071)
        Pressure : (2.45932e-05 0.0010271 0.00248518)
        Viscous  : (2.99073e-07 -3.72196e-06 4.55218e-05)
    writing force and moment files.

Time = 35

smoothSolver:  Solving for Ux, Initial residual = 7.30348e-05, Final residual = 7.15194e-06, No Iterations 1
smoothSolver:  Solving for Uy, Initial residual = 0.0024528, Final residual = 0.000225888, No Iterations 1
smoothSolver:  Solving for Uz, Initial residual = 0.00684237, Final residual = 0.000128797, No Iterations 2
GAMG:  Solving for p, Initial residual = 0.00825298, Final residual = 0.000447867, No Iterations 2
time step continuity errors : sum local = 3.30189e-06, global = 8.10808e-07, cumulative = 8.92452e-07
smoothSolver:  Solving for omega, Initial residual = 2.10214e-05, Final residual = 1.29291e-06, No Iterations 1
smoothSolver:  Solving for k, Initial residual = 0.00311431, Final residual = 0.000185675, No Iterations 1
ExecutionTime = 21.16 s  ClockTime = 21 s

forces forcesFish write:
    Sum of forces
        Total    : (0.145803 0.00841721 -0.00292644)
        Pressure : (0.0527128 0.00817546 -0.00292891)
        Viscous  : (0.0930899 0.000241747 2.46614e-06)
    Sum of moments
        Total    : (2.67586e-05 0.00109548 0.00245079)
        Pressure : (2.64518e-05 0.0010989 0.00240337)
        Viscous  : (3.06792e-07 -3.42338e-06 4.74201e-05)
    writing force and moment files.

Time = 36

smoothSolver:  Solving for Ux, Initial residual = 6.67057e-05, Final residual = 6.62174e-06, No Iterations 1
smoothSolver:  Solving for Uy, Initial residual = 0.00238931, Final residual = 0.000221142, No Iterations 1
smoothSolver:  Solving for Uz, Initial residual = 0.00618316, Final residual = 0.000117809, No Iterations 2
GAMG:  Solving for p, Initial residual = 0.00778227, Final residual = 0.000420043, No Iterations 2
time step continuity errors : sum local = 3.10489e-06, global = 8.58707e-07, cumulative = 1.75116e-06
smoothSolver:  Solving for omega, Initial residual = 1.79665e-05, Final residual = 1.12907e-06, No Iterations 1
smoothSolver:  Solving for k, Initial residual = 0.00279632, Final residual = 0.000166549, No Iterations 1
ExecutionTime = 21.71 s  ClockTime = 21 s

forces forcesFish write:
    Sum of forces
        Total    : (0.145376 0.00830228 -0.00309844)
        Pressure : (0.0526098 0.00805369 -0.00310067)
        Viscous  : (0.0927658 0.000248588 2.23329e-06)
    Sum of moments
        Total    : (2.86673e-05 0.00113731 0.00240523)
        Pressure : (2.83583e-05 0.00114059 0.00235593)
        Viscous  : (3.09001e-07 -3.28568e-06 4.9305e-05)
    writing force and moment files.

Time = 37

smoothSolver:  Solving for Ux, Initial residual = 5.88955e-05, Final residual = 1.14817e-06, No Iterations 2
smoothSolver:  Solving for Uy, Initial residual = 0.00233596, Final residual = 0.000218381, No Iterations 1
smoothSolver:  Solving for Uz, Initial residual = 0.00554101, Final residual = 0.000542146, No Iterations 1
GAMG:  Solving for p, Initial residual = 0.0072811, Final residual = 0.000399251, No Iterations 2
time step continuity errors : sum local = 2.95492e-06, global = 8.37769e-07, cumulative = 2.58893e-06
smoothSolver:  Solving for omega, Initial residual = 1.52896e-05, Final residual = 9.86529e-07, No Iterations 1
smoothSolver:  Solving for k, Initial residual = 0.00249908, Final residual = 0.000148833, No Iterations 1
ExecutionTime = 22.24 s  ClockTime = 22 s

forces forcesFish write:
    Sum of forces
        Total    : (0.144963 0.0082382 -0.00316879)
        Pressure : (0.0525288 0.00798308 -0.00317045)
        Viscous  : (0.0924338 0.000255125 1.66143e-06)
    Sum of moments
        Total    : (3.03376e-05 0.00115143 0.00237473)
        Pressure : (3.00196e-05 0.00115446 0.0023237)
        Viscous  : (3.17992e-07 -3.03483e-06 5.1024e-05)
    writing force and moment files.

Time = 38

smoothSolver:  Solving for Ux, Initial residual = 5.08192e-05, Final residual = 1.04481e-06, No Iterations 2
smoothSolver:  Solving for Uy, Initial residual = 0.00233099, Final residual = 0.000219156, No Iterations 1
smoothSolver:  Solving for Uz, Initial residual = 0.00507107, Final residual = 0.000475252, No Iterations 1
GAMG:  Solving for p, Initial residual = 0.0067683, Final residual = 0.000372045, No Iterations 2
time step continuity errors : sum local = 2.75279e-06, global = 7.75957e-07, cumulative = 3.36489e-06
smoothSolver:  Solving for omega, Initial residual = 1.29509e-05, Final residual = 8.62356e-07, No Iterations 1
smoothSolver:  Solving for k, Initial residual = 0.00222207, Final residual = 0.000132509, No Iterations 1
ExecutionTime = 22.8 s  ClockTime = 23 s

forces forcesFish write:
    Sum of forces
        Total    : (0.14455 0.0081992 -0.00314831)
        Pressure : (0.0524338 0.00793768 -0.00314971)
        Viscous  : (0.0921159 0.000261513 1.39811e-06)
    Sum of moments
        Total    : (3.15627e-05 0.00114132 0.00235436)
        Pressure : (3.12408e-05 0.00114424 0.00230162)
        Viscous  : (3.21857e-07 -2.92255e-06 5.27392e-05)
    writing force and moment files.

Time = 39

smoothSolver:  Solving for Ux, Initial residual = 4.52295e-05, Final residual = 9.54774e-07, No Iterations 2
smoothSolver:  Solving for Uy, Initial residual = 0.00237561, Final residual = 0.000222983, No Iterations 1
smoothSolver:  Solving for Uz, Initial residual = 0.00469597, Final residual = 0.000417932, No Iterations 1
GAMG:  Solving for p, Initial residual = 0.00624878, Final residual = 0.000337713, No Iterations 2
time step continuity errors : sum local = 2.49484e-06, global = 6.90321e-07, cumulative = 4.05521e-06
smoothSolver:  Solving for omega, Initial residual = 1.09237e-05, Final residual = 7.54788e-07, No Iterations 1
smoothSolver:  Solving for k, Initial residual = 0.00196382, Final residual = 0.000117482, No Iterations 1
ExecutionTime = 23.35 s  ClockTime = 23 s

forces forcesFish write:
    Sum of forces
        Total    : (0.144126 0.008162 -0.00305977)
        Pressure : (0.0523139 0.00789429 -0.00306079)
        Viscous  : (0.0918123 0.000267715 1.01822e-06)
    Sum of moments
        Total    : (3.22342e-05 0.00111347 0.00233893)
        Pressure : (3.1907e-05 0.00111624 0.0022845)
        Viscous  : (3.2722e-07 -2.77524e-06 5.44374e-05)
    writing force and moment files.

Time = 40

smoothSolver:  Solving for Ux, Initial residual = 4.32452e-05, Final residual = 8.84006e-07, No Iterations 2
smoothSolver:  Solving for Uy, Initial residual = 0.00244071, Final residual = 0.000228541, No Iterations 1
smoothSolver:  Solving for Uz, Initial residual = 0.00431286, Final residual = 0.000365915, No Iterations 1
GAMG:  Solving for p, Initial residual = 0.00578486, Final residual = 0.00030013, No Iterations 2
time step continuity errors : sum local = 2.21212e-06, global = 5.80667e-07, cumulative = 4.63587e-06
smoothSolver:  Solving for omega, Initial residual = 9.17938e-06, Final residual = 6.61992e-07, No Iterations 1
smoothSolver:  Solving for k, Initial residual = 0.00172562, Final residual = 0.000103807, No Iterations 1
ExecutionTime = 23.89 s  ClockTime = 24 s

forces forcesFish write:
    Sum of forces
        Total    : (0.14369 0.00811085 -0.00293232)
        Pressure : (0.0521683 0.00783718 -0.00293309)
        Viscous  : (0.0915221 0.000273675 7.62557e-07)
    Sum of moments
        Total    : (3.23586e-05 0.00107586 0.00232425)
        Pressure : (3.20297e-05 0.00107855 0.00226818)
        Viscous  : (3.28926e-07 -2.69398e-06 5.60757e-05)
    writing force and moment files.

Time = 41

smoothSolver:  Solving for Ux, Initial residual = 4.29423e-05, Final residual = 8.29385e-07, No Iterations 2
smoothSolver:  Solving for Uy, Initial residual = 0.00252437, Final residual = 0.000234147, No Iterations 1
smoothSolver:  Solving for Uz, Initial residual = 0.003917, Final residual = 0.000319762, No Iterations 1
GAMG:  Solving for p, Initial residual = 0.00536604, Final residual = 0.000264162, No Iterations 2
time step continuity errors : sum local = 1.9424e-06, global = 4.47531e-07, cumulative = 5.08341e-06
smoothSolver:  Solving for omega, Initial residual = 7.69127e-06, Final residual = 5.82713e-07, No Iterations 1
smoothSolver:  Solving for k, Initial residual = 0.00150725, Final residual = 9.14418e-05, No Iterations 1
ExecutionTime = 24.42 s  ClockTime = 24 s

forces forcesFish write:
    Sum of forces
        Total    : (0.143253 0.00803749 -0.00279323)
        Pressure : (0.0520082 0.00775829 -0.00279352)
        Viscous  : (0.0912449 0.000279193 2.83699e-07)
    Sum of moments
        Total    : (3.20245e-05 0.00103574 0.00230733)
        Pressure : (3.169e-05 0.00103827 0.00224975)
        Viscous  : (3.345e-07 -2.5313e-06 5.7575e-05)
    writing force and moment files.

Time = 42

smoothSolver:  Solving for Ux, Initial residual = 4.27383e-05, Final residual = 4.1674e-06, No Iterations 1
smoothSolver:  Solving for Uy, Initial residual = 0.00263853, Final residual = 0.000241514, No Iterations 1
smoothSolver:  Solving for Uz, Initial residual = 0.00356428, Final residual = 0.000283885, No Iterations 1
GAMG:  Solving for p, Initial residual = 0.00496634, Final residual = 0.000234431, No Iterations 2
time step continuity errors : sum local = 1.72041e-06, global = 3.08399e-07, cumulative = 5.3918e-06
smoothSolver:  Solving for omega, Initial residual = 6.42767e-06, Final residual = 5.14325e-07, No Iterations 1
smoothSolver:  Solving for k, Initial residual = 0.00130783, Final residual = 8.02972e-05, No Iterations 1
ExecutionTime = 24.96 s  ClockTime = 25 s

forces forcesFish write:
    Sum of forces
        Total    : (0.142876 0.00795707 -0.00266322)
        Pressure : (0.0518782 0.00767262 -0.00266311)
        Viscous  : (0.0909974 0.000284448 -1.09595e-07)
    Sum of moments
        Total    : (3.13696e-05 0.000998576 0.00229272)
        Pressure : (3.10317e-05 0.00100098 0.00223361)
        Viscous  : (3.37855e-07 -2.40238e-06 5.9109e-05)
    writing force and moment files.

Time = 43

smoothSolver:  Solving for Ux, Initial residual = 4.1809e-05, Final residual = 4.04239e-06, No Iterations 1
smoothSolver:  Solving for Uy, Initial residual = 0.00274034, Final residual = 0.000248424, No Iterations 1
smoothSolver:  Solving for Uz, Initial residual = 0.00329745, Final residual = 0.000263693, No Iterations 1
GAMG:  Solving for p, Initial residual = 0.00460226, Final residual = 0.000219049, No Iterations 2
time step continuity errors : sum local = 1.60596e-06, global = 1.7294e-07, cumulative = 5.56474e-06
smoothSolver:  Solving for omega, Initial residual = 5.3697e-06, Final residual = 4.56474e-07, No Iterations 1
smoothSolver:  Solving for k, Initial residual = 0.00112796, Final residual = 7.03619e-05, No Iterations 1
ExecutionTime = 25.48 s  ClockTime = 25 s

forces forcesFish write:
    Sum of forces
        Total    : (0.142538 0.00786467 -0.00255491)
        Pressure : (0.0517768 0.0075757 -0.00255475)
        Viscous  : (0.0907608 0.000288968 -1.61398e-07)
    Sum of moments
        Total    : (3.05177e-05 0.000967476 0.00227695)
        Pressure : (3.01822e-05 0.000969882 0.00221658)
        Viscous  : (3.35538e-07 -2.40581e-06 6.03711e-05)
    writing force and moment files.

Time = 44

smoothSolver:  Solving for Ux, Initial residual = 3.96037e-05, Final residual = 3.85199e-06, No Iterations 1
smoothSolver:  Solving for Uy, Initial residual = 0.00282514, Final residual = 0.000254215, No Iterations 1
smoothSolver:  Solving for Uz, Initial residual = 0.00310088, Final residual = 0.000251246, No Iterations 1
GAMG:  Solving for p, Initial residual = 0.00428308, Final residual = 0.00021901, No Iterations 2
time step continuity errors : sum local = 1.60566e-06, global = 6.66845e-08, cumulative = 5.63143e-06
smoothSolver:  Solving for omega, Initial residual = 4.49164e-06, Final residual = 4.0761e-07, No Iterations 1
smoothSolver:  Solving for k, Initial residual = 0.000967136, Final residual = 6.15632e-05, No Iterations 1
ExecutionTime = 26.03 s  ClockTime = 26 s

forces forcesFish write:
    Sum of forces
        Total    : (0.142236 0.00775911 -0.00247502)
        Pressure : (0.0517014 0.00746599 -0.00247454)
        Viscous  : (0.0905348 0.000293124 -4.82258e-07)
    Sum of moments
        Total    : (2.95942e-05 0.000944099 0.00225797)
        Pressure : (2.92569e-05 0.000946398 0.00219645)
        Viscous  : (3.37227e-07 -2.29937e-06 6.15178e-05)
    writing force and moment files.

Time = 45

smoothSolver:  Solving for Ux, Initial residual = 3.6389e-05, Final residual = 3.6077e-06, No Iterations 1
smoothSolver:  Solving for Uy, Initial residual = 0.00288974, Final residual = 0.000257789, No Iterations 1
smoothSolver:  Solving for Uz, Initial residual = 0.00293672, Final residual = 0.000238772, No Iterations 1
GAMG:  Solving for p, Initial residual = 0.00400052, Final residual = 0.000215905, No Iterations 2
time step continuity errors : sum local = 1.58414e-06, global = 6.85337e-09, cumulative = 5.63828e-06
smoothSolver:  Solving for omega, Initial residual = 3.76584e-06, Final residual = 3.66406e-07, No Iterations 1
smoothSolver:  Solving for k, Initial residual = 0.000824431, Final residual = 5.38063e-05, No Iterations 1
ExecutionTime = 26.55 s  ClockTime = 26 s

forces forcesFish write:
    Sum of forces
        Total    : (0.141968 0.00764189 -0.00242415)
        Pressure : (0.051649 0.00734538 -0.00242323)
        Viscous  : (0.0903188 0.000296512 -9.20821e-07)
    Sum of moments
        Total    : (2.86897e-05 0.000928367 0.0022347)
        Pressure : (2.83476e-05 0.000930509 0.00217232)
        Viscous  : (3.42102e-07 -2.14149e-06 6.23844e-05)
    writing force and moment files.

Time = 46

smoothSolver:  Solving for Ux, Initial residual = 3.25435e-05, Final residual = 6.41975e-07, No Iterations 2
smoothSolver:  Solving for Uy, Initial residual = 0.00293492, Final residual = 0.000258451, No Iterations 1
smoothSolver:  Solving for Uz, Initial residual = 0.00279003, Final residual = 0.000225298, No Iterations 1
GAMG:  Solving for p, Initial residual = 0.00375725, Final residual = 0.000204725, No Iterations 2
time step continuity errors : sum local = 1.50403e-06, global = -3.79049e-08, cumulative = 5.60038e-06
smoothSolver:  Solving for omega, Initial residual = 3.17566e-06, Final residual = 6.0683e-08, No Iterations 2
smoothSolver:  Solving for k, Initial residual = 0.000698818, Final residual = 4.69865e-05, No Iterations 1
ExecutionTime = 27.11 s  ClockTime = 27 s

forces forcesFish write:
    Sum of forces
        Total    : (0.141677 0.00750511 -0.00239755)
        Pressure : (0.0515798 0.0072057 -0.00239659)
        Viscous  : (0.0900972 0.000299411 -9.60359e-07)
    Sum of moments
        Total    : (2.78608e-05 0.000918675 0.0022025)
        Pressure : (2.75211e-05 0.000920812 0.00213952)
        Viscous  : (3.39752e-07 -2.13722e-06 6.29775e-05)
    writing force and moment files.

Time = 47

smoothSolver:  Solving for Ux, Initial residual = 2.85254e-05, Final residual = 5.97449e-07, No Iterations 2
smoothSolver:  Solving for Uy, Initial residual = 0.0029591, Final residual = 0.000257593, No Iterations 1
smoothSolver:  Solving for Uz, Initial residual = 0.00265125, Final residual = 0.000211735, No Iterations 1
GAMG:  Solving for p, Initial residual = 0.0035323, Final residual = 0.000189226, No Iterations 2
time step continuity errors : sum local = 1.39184e-06, global = -7.74902e-08, cumulative = 5.52289e-06
smoothSolver:  Solving for omega, Initial residual = 2.63588e-06, Final residual = 5.55447e-08, No Iterations 2
smoothSolver:  Solving for k, Initial residual = 0.00058968, Final residual = 4.10552e-05, No Iterations 1
ExecutionTime = 27.65 s  ClockTime = 27 s

forces forcesFish write:
    Sum of forces
        Total    : (0.141382 0.0073645 -0.00238784)
        Pressure : (0.0514958 0.00706245 -0.0023868)
        Viscous  : (0.0898858 0.000302049 -1.03718e-06)
    Sum of moments
        Total    : (2.71521e-05 0.000912931 0.00216583)
        Pressure : (2.68142e-05 0.000915041 0.00210233)
        Viscous  : (3.37937e-07 -2.11041e-06 6.35023e-05)
    writing force and moment files.

Time = 48

smoothSolver:  Solving for Ux, Initial residual = 2.59262e-05, Final residual = 5.60664e-07, No Iterations 2
smoothSolver:  Solving for Uy, Initial residual = 0.00295657, Final residual = 0.000255187, No Iterations 1
smoothSolver:  Solving for Uz, Initial residual = 0.00249137, Final residual = 0.000196751, No Iterations 1
GAMG:  Solving for p, Initial residual = 0.00331455, Final residual = 0.000173577, No Iterations 2
time step continuity errors : sum local = 1.27791e-06, global = -1.15195e-07, cumulative = 5.40769e-06
smoothSolver:  Solving for omega, Initial residual = 2.20819e-06, Final residual = 5.06124e-08, No Iterations 2
smoothSolver:  Solving for k, Initial residual = 0.000495723, Final residual = 3.59188e-05, No Iterations 1
ExecutionTime = 28.19 s  ClockTime = 28 s

forces forcesFish write:
    Sum of forces
        Total    : (0.141085 0.00723299 -0.00238581)
        Pressure : (0.0513999 0.00692868 -0.00238439)
        Viscous  : (0.0896846 0.000304304 -1.42088e-06)
    Sum of moments
        Total    : (2.65725e-05 0.00090865 0.00212881)
        Pressure : (2.62297e-05 0.000910608 0.0020649)
        Viscous  : (3.42768e-07 -1.95768e-06 6.39077e-05)
    writing force and moment files.

Time = 49

smoothSolver:  Solving for Ux, Initial residual = 2.49579e-05, Final residual = 5.33748e-07, No Iterations 2
smoothSolver:  Solving for Uy, Initial residual = 0.00292527, Final residual = 0.000251058, No Iterations 1
smoothSolver:  Solving for Uz, Initial residual = 0.00230777, Final residual = 0.000180584, No Iterations 1
GAMG:  Solving for p, Initial residual = 0.00310823, Final residual = 0.000158722, No Iterations 2
time step continuity errors : sum local = 1.16915e-06, global = -1.41264e-07, cumulative = 5.26643e-06
smoothSolver:  Solving for omega, Initial residual = 1.86967e-06, Final residual = 4.63113e-08, No Iterations 2
smoothSolver:  Solving for k, Initial residual = 0.000415475, Final residual = 3.14801e-05, No Iterations 1
ExecutionTime = 28.76 s  ClockTime = 28 s

forces forcesFish write:
    Sum of forces
        Total    : (0.140785 0.00711873 -0.00238206)
        Pressure : (0.0512925 0.00681236 -0.00238068)
        Viscous  : (0.0894928 0.000306369 -1.37804e-06)
    Sum of moments
        Total    : (2.60805e-05 0.000903231 0.00209453)
        Pressure : (2.57402e-05 0.000905201 0.00203026)
        Viscous  : (3.40381e-07 -1.96994e-06 6.42637e-05)
    writing force and moment files.

Time = 50

smoothSolver:  Solving for Ux, Initial residual = 2.46746e-05, Final residual = 5.11888e-07, No Iterations 2
smoothSolver:  Solving for Uy, Initial residual = 0.00275529, Final residual = 0.000236249, No Iterations 1
smoothSolver:  Solving for Uz, Initial residual = 0.00213566, Final residual = 0.000166267, No Iterations 1
GAMG:  Solving for p, Initial residual = 0.00291182, Final residual = 0.00014834, No Iterations 2
time step continuity errors : sum local = 1.09278e-06, global = -1.49279e-07, cumulative = 5.11715e-06
smoothSolver:  Solving for omega, Initial residual = 1.60142e-06, Final residual = 4.26051e-08, No Iterations 2
smoothSolver:  Solving for k, Initial residual = 0.000347514, Final residual = 2.76531e-05, No Iterations 1
ExecutionTime = 29.3 s  ClockTime = 29 s

forces forcesFish write:
    Sum of forces
        Total    : (0.140488 0.00702379 -0.00237099)
        Pressure : (0.0511779 0.00671555 -0.00236965)
        Viscous  : (0.0893102 0.000308236 -1.33683e-06)
    Sum of moments
        Total    : (2.56486e-05 0.000895311 0.0020644)
        Pressure : (2.53102e-05 0.000897291 0.00199984)
        Viscous  : (3.38443e-07 -1.97943e-06 6.45634e-05)
    writing force and moment files.

Time = 51

smoothSolver:  Solving for Ux, Initial residual = 2.42445e-05, Final residual = 4.9099e-07, No Iterations 2
smoothSolver:  Solving for Uy, Initial residual = 0.00245395, Final residual = 0.00021103, No Iterations 1
smoothSolver:  Solving for Uz, Initial residual = 0.00199231, Final residual = 0.000154343, No Iterations 1
GAMG:  Solving for p, Initial residual = 0.00272928, Final residual = 0.000137257, No Iterations 2
time step continuity errors : sum local = 1.01084e-06, global = -1.56515e-07, cumulative = 4.96063e-06
smoothSolver:  Solving for omega, Initial residual = 1.38945e-06, Final residual = 3.93552e-08, No Iterations 2
smoothSolver:  Solving for k, Initial residual = 0.000290481, Final residual = 2.43635e-05, No Iterations 1
ExecutionTime = 29.86 s  ClockTime = 30 s

forces forcesFish write:
    Sum of forces
        Total    : (0.140198 0.0069469 -0.00234895)
        Pressure : (0.0510614 0.00663704 -0.00234738)
        Viscous  : (0.0891367 0.000309859 -1.57248e-06)
    Sum of moments
        Total    : (2.52371e-05 0.000883977 0.00203877)
        Pressure : (2.48953e-05 0.000885855 0.00197397)
        Viscous  : (3.41834e-07 -1.87794e-06 6.47953e-05)
    writing force and moment files.

Time = 52

smoothSolver:  Solving for Ux, Initial residual = 2.34496e-05, Final residual = 4.70109e-07, No Iterations 2
smoothSolver:  Solving for Uy, Initial residual = 0.00216898, Final residual = 0.000186921, No Iterations 1
smoothSolver:  Solving for Uz, Initial residual = 0.00186998, Final residual = 0.000143961, No Iterations 1
GAMG:  Solving for p, Initial residual = 0.00256155, Final residual = 0.000128375, No Iterations 2
time step continuity errors : sum local = 9.44854e-07, global = -1.62457e-07, cumulative = 4.79818e-06
smoothSolver:  Solving for omega, Initial residual = 1.2204e-06, Final residual = 3.64612e-08, No Iterations 2
smoothSolver:  Solving for k, Initial residual = 0.000242962, Final residual = 2.15369e-05, No Iterations 1
ExecutionTime = 30.41 s  ClockTime = 30 s

forces forcesFish write:
    Sum of forces
        Total    : (0.139916 0.00688619 -0.00231416)
        Pressure : (0.0509447 0.00657478 -0.00231244)
        Viscous  : (0.0889718 0.000311412 -1.71741e-06)
    Sum of moments
        Total    : (2.48094e-05 0.000868785 0.00201762)
        Pressure : (2.44663e-05 0.000870597 0.00195259)
        Viscous  : (3.43082e-07 -1.81192e-06 6.5027e-05)
    writing force and moment files.

Time = 53

smoothSolver:  Solving for Ux, Initial residual = 2.22347e-05, Final residual = 4.48546e-07, No Iterations 2
smoothSolver:  Solving for Uy, Initial residual = 0.00193107, Final residual = 0.000166607, No Iterations 1
smoothSolver:  Solving for Uz, Initial residual = 0.00176901, Final residual = 0.000135194, No Iterations 1
GAMG:  Solving for p, Initial residual = 0.00240829, Final residual = 0.000125538, No Iterations 2
time step continuity errors : sum local = 9.23138e-07, global = -1.70854e-07, cumulative = 4.62732e-06
smoothSolver:  Solving for omega, Initial residual = 1.08494e-06, Final residual = 3.38643e-08, No Iterations 2
smoothSolver:  Solving for k, Initial residual = 0.000203613, Final residual = 1.9106e-05, No Iterations 1
ExecutionTime = 30.97 s  ClockTime = 31 s

forces forcesFish write:
    Sum of forces
        Total    : (0.139644 0.00683812 -0.00226682)
        Pressure : (0.0508297 0.00652567 -0.00226536)
        Viscous  : (0.0888145 0.000312451 -1.4629e-06)
    Sum of moments
        Total    : (2.43438e-05 0.000849871 0.0020002)
        Pressure : (2.40054e-05 0.000851776 0.00193513)
        Viscous  : (3.38406e-07 -1.90499e-06 6.50709e-05)
    writing force and moment files.

Time = 54

smoothSolver:  Solving for Ux, Initial residual = 2.05023e-05, Final residual = 4.25683e-07, No Iterations 2
smoothSolver:  Solving for Uy, Initial residual = 0.00174084, Final residual = 0.000150082, No Iterations 1
smoothSolver:  Solving for Uz, Initial residual = 0.00168544, Final residual = 0.000127736, No Iterations 1
GAMG:  Solving for p, Initial residual = 0.0022655, Final residual = 0.000118533, No Iterations 2
time step continuity errors : sum local = 8.70559e-07, global = -1.74295e-07, cumulative = 4.45303e-06
smoothSolver:  Solving for omega, Initial residual = 9.76443e-07, Final residual = 3.15433e-08, No Iterations 2
smoothSolver:  Solving for k, Initial residual = 0.000171165, Final residual = 1.70088e-05, No Iterations 1
ExecutionTime = 31.53 s  ClockTime = 31 s

forces forcesFish write:
    Sum of forces
        Total    : (0.139387 0.00680021 -0.00220962)
        Pressure : (0.0507215 0.00648658 -0.0022077)
        Viscous  : (0.0886657 0.000313633 -1.91509e-06)
    Sum of moments
        Total    : (2.384e-05 0.000828193 0.00198615)
        Pressure : (2.3495e-05 0.000829911 0.00192094)
        Viscous  : (3.45004e-07 -1.71787e-06 6.52075e-05)
    writing force and moment files.

Time = 55

smoothSolver:  Solving for Ux, Initial residual = 1.85212e-05, Final residual = 4.01909e-07, No Iterations 2
smoothSolver:  Solving for Uy, Initial residual = 0.00157838, Final residual = 0.000136009, No Iterations 1
smoothSolver:  Solving for Uz, Initial residual = 0.0016006, Final residual = 0.000120939, No Iterations 1
GAMG:  Solving for p, Initial residual = 0.00212887, Final residual = 0.000109901, No Iterations 2
time step continuity errors : sum local = 8.0596e-07, global = -1.65579e-07, cumulative = 4.28745e-06
smoothSolver:  Solving for omega, Initial residual = 8.86128e-07, Final residual = 2.94328e-08, No Iterations 2
smoothSolver:  Solving for k, Initial residual = 0.000144512, Final residual = 2.92857e-06, No Iterations 2
ExecutionTime = 32.09 s  ClockTime = 32 s

forces forcesFish write:
    Sum of forces
        Total    : (0.139128 0.00676978 -0.00214574)
        Pressure : (0.0506196 0.00645561 -0.00214396)
        Viscous  : (0.0885079 0.000314174 -1.78421e-06)
    Sum of moments
        Total    : (2.32839e-05 0.000804702 0.00197468)
        Pressure : (2.29415e-05 0.000806467 0.00190961)
        Viscous  : (3.42385e-07 -1.76461e-06 6.50727e-05)
    writing force and moment files.

Time = 56

smoothSolver:  Solving for Ux, Initial residual = 1.69033e-05, Final residual = 3.81698e-07, No Iterations 2
smoothSolver:  Solving for Uy, Initial residual = 0.00143338, Final residual = 0.000123748, No Iterations 1
smoothSolver:  Solving for Uz, Initial residual = 0.00151213, Final residual = 0.000114896, No Iterations 1
GAMG:  Solving for p, Initial residual = 0.00200248, Final residual = 0.000102892, No Iterations 2
time step continuity errors : sum local = 7.53371e-07, global = -1.51193e-07, cumulative = 4.13626e-06
smoothSolver:  Solving for omega, Initial residual = 8.33494e-07, Final residual = 2.81813e-08, No Iterations 2
smoothSolver:  Solving for k, Initial residual = 0.000121677, Final residual = 2.64742e-06, No Iterations 2
ExecutionTime = 32.66 s  ClockTime = 32 s

forces forcesFish write:
    Sum of forces
        Total    : (0.138882 0.00674494 -0.00208134)
        Pressure : (0.0505228 0.00643022 -0.00207936)
        Viscous  : (0.088359 0.000314724 -1.98579e-06)
    Sum of moments
        Total    : (2.27046e-05 0.000781408 0.00196536)
        Pressure : (2.23596e-05 0.000783087 0.0019004)
        Viscous  : (3.45079e-07 -1.67898e-06 6.49529e-05)
    writing force and moment files.

Time = 57

smoothSolver:  Solving for Ux, Initial residual = 1.61899e-05, Final residual = 3.64752e-07, No Iterations 2
smoothSolver:  Solving for Uy, Initial residual = 0.00129773, Final residual = 0.000112958, No Iterations 1
smoothSolver:  Solving for Uz, Initial residual = 0.00141325, Final residual = 0.0001089, No Iterations 1
GAMG:  Solving for p, Initial residual = 0.00188484, Final residual = 9.58585e-05, No Iterations 2
time step continuity errors : sum local = 7.00871e-07, global = -1.36458e-07, cumulative = 3.9998e-06
smoothSolver:  Solving for omega, Initial residual = 7.82964e-07, Final residual = 2.68254e-08, No Iterations 2
smoothSolver:  Solving for k, Initial residual = 0.000103074, Final residual = 2.37203e-06, No Iterations 2
ExecutionTime = 33.22 s  ClockTime = 33 s

forces forcesFish write:
    Sum of forces
        Total    : (0.138647 0.00672301 -0.0020194)
        Pressure : (0.0504292 0.00640816 -0.00201753)
        Viscous  : (0.0882183 0.000314848 -1.86938e-06)
    Sum of moments
        Total    : (2.21066e-05 0.000759128 0.0019572)
        Pressure : (2.17635e-05 0.000760848 0.00189254)
        Viscous  : (3.43139e-07 -1.72035e-06 6.4665e-05)
    writing force and moment files.

Time = 58

smoothSolver:  Solving for Ux, Initial residual = 1.61695e-05, Final residual = 3.50167e-07, No Iterations 2
smoothSolver:  Solving for Uy, Initial residual = 0.00117613, Final residual = 0.000103539, No Iterations 1
smoothSolver:  Solving for Uz, Initial residual = 0.00131547, Final residual = 0.00010317, No Iterations 1
GAMG:  Solving for p, Initial residual = 0.00177416, Final residual = 8.88573e-05, No Iterations 2
time step continuity errors : sum local = 6.48931e-07, global = -1.17237e-07, cumulative = 3.88256e-06
smoothSolver:  Solving for omega, Initial residual = 7.36352e-07, Final residual = 2.54252e-08, No Iterations 2
smoothSolver:  Solving for k, Initial residual = 8.78963e-05, Final residual = 2.12002e-06, No Iterations 2
ExecutionTime = 33.79 s  ClockTime = 34 s

forces forcesFish write:
    Sum of forces
        Total    : (0.138426 0.00670259 -0.001962)
        Pressure : (0.0503398 0.00638751 -0.00195974)
        Viscous  : (0.0880863 0.000315082 -2.26431e-06)
    Sum of moments
        Total    : (2.1511e-05 0.0007385 0.00194968)
        Pressure : (2.11617e-05 0.000740057 0.00188525)
        Viscous  : (3.49315e-07 -1.55778e-06 6.44305e-05)
    writing force and moment files.

Time = 59

smoothSolver:  Solving for Ux, Initial residual = 1.63817e-05, Final residual = 3.37074e-07, No Iterations 2
smoothSolver:  Solving for Uy, Initial residual = 0.00107765, Final residual = 9.56791e-05, No Iterations 1
smoothSolver:  Solving for Uz, Initial residual = 0.00122788, Final residual = 9.77659e-05, No Iterations 1
GAMG:  Solving for p, Initial residual = 0.00167048, Final residual = 8.13887e-05, No Iterations 2
time step continuity errors : sum local = 5.93853e-07, global = -8.73313e-08, cumulative = 3.79523e-06
smoothSolver:  Solving for omega, Initial residual = 6.91818e-07, Final residual = 2.40079e-08, No Iterations 2
smoothSolver:  Solving for k, Initial residual = 7.54779e-05, Final residual = 1.89302e-06, No Iterations 2
ExecutionTime = 34.36 s  ClockTime = 34 s

forces forcesFish write:
    Sum of forces
        Total    : (0.138215 0.00668232 -0.00190863)
        Pressure : (0.050253 0.00636746 -0.00190653)
        Viscous  : (0.0879616 0.000314858 -2.09272e-06)
    Sum of moments
        Total    : (2.09134e-05 0.00071922 0.00194213)
        Pressure : (2.05669e-05 0.00072084 0.00187812)
        Viscous  : (3.46491e-07 -1.62052e-06 6.40074e-05)
    writing force and moment files.

Time = 60

smoothSolver:  Solving for Ux, Initial residual = 1.64599e-05, Final residual = 3.24116e-07, No Iterations 2
smoothSolver:  Solving for Uy, Initial residual = 0.000996003, Final residual = 8.88102e-05, No Iterations 1
smoothSolver:  Solving for Uz, Initial residual = 0.00115965, Final residual = 9.33786e-05, No Iterations 1
GAMG:  Solving for p, Initial residual = 0.00157654, Final residual = 7.41286e-05, No Iterations 2
time step continuity errors : sum local = 5.40491e-07, global = -4.53407e-08, cumulative = 3.74989e-06
smoothSolver:  Solving for omega, Initial residual = 6.502e-07, Final residual = 2.25923e-08, No Iterations 2
smoothSolver:  Solving for k, Initial residual = 6.52591e-05, Final residual = 1.68877e-06, No Iterations 2
ExecutionTime = 34.93 s  ClockTime = 35 s

forces forcesFish write:
    Sum of forces
        Total    : (0.138015 0.00666239 -0.00185991)
        Pressure : (0.0501705 0.00634769 -0.00185764)
        Viscous  : (0.0878448 0.000314696 -2.26819e-06)
    Sum of moments
        Total    : (2.03356e-05 0.000701515 0.00193454)
        Pressure : (1.99863e-05 0.00070306 0.00187093)
        Viscous  : (3.49372e-07 -1.54504e-06 6.36159e-05)
    writing force and moment files.

Time = 61

smoothSolver:  Solving for Ux, Initial residual = 1.63212e-05, Final residual = 3.10872e-07, No Iterations 2
smoothSolver:  Solving for Uy, Initial residual = 0.00091951, Final residual = 8.23611e-05, No Iterations 1
smoothSolver:  Solving for Uz, Initial residual = 0.00110307, Final residual = 8.94079e-05, No Iterations 1
GAMG:  Solving for p, Initial residual = 0.00148862, Final residual = 6.74702e-05, No Iterations 2
time step continuity errors : sum local = 4.91657e-07, global = 6.27484e-09, cumulative = 3.75616e-06
smoothSolver:  Solving for omega, Initial residual = 6.12232e-07, Final residual = 2.11988e-08, No Iterations 2
smoothSolver:  Solving for k, Initial residual = 5.68123e-05, Final residual = 1.5054e-06, No Iterations 2
ExecutionTime = 35.48 s  ClockTime = 35 s

forces forcesFish write:
    Sum of forces
        Total    : (0.137827 0.0066428 -0.00181472)
        Pressure : (0.0500926 0.00632861 -0.00181263)
        Viscous  : (0.0877348 0.000314189 -2.09536e-06)
    Sum of moments
        Total    : (1.97721e-05 0.000684943 0.00192679)
        Pressure : (1.94252e-05 0.000686551 0.00186371)
        Viscous  : (3.46862e-07 -1.60765e-06 6.3084e-05)
    writing force and moment files.

Time = 62

smoothSolver:  Solving for Ux, Initial residual = 1.59521e-05, Final residual = 1.57559e-06, No Iterations 1
smoothSolver:  Solving for Uy, Initial residual = 0.00084901, Final residual = 7.64963e-05, No Iterations 1
smoothSolver:  Solving for Uz, Initial residual = 0.00105317, Final residual = 8.57948e-05, No Iterations 1
GAMG:  Solving for p, Initial residual = 0.00140423, Final residual = 6.21569e-05, No Iterations 2
time step continuity errors : sum local = 4.52728e-07, global = 6.21849e-08, cumulative = 3.81835e-06
smoothSolver:  Solving for omega, Initial residual = 5.75504e-07, Final residual = 1.98076e-08, No Iterations 2
smoothSolver:  Solving for k, Initial residual = 4.97823e-05, Final residual = 1.34116e-06, No Iterations 2
ExecutionTime = 36.05 s  ClockTime = 36 s

forces forcesFish write:
    Sum of forces
        Total    : (0.137679 0.00663078 -0.00177411)
        Pressure : (0.0500398 0.00631695 -0.00177174)
        Viscous  : (0.0876389 0.000313833 -2.37612e-06)
    Sum of moments
        Total    : (1.92501e-05 0.000669949 0.00192176)
        Pressure : (1.88983e-05 0.000671438 0.00185907)
        Viscous  : (3.51768e-07 -1.4894e-06 6.26865e-05)
    writing force and moment files.

Time = 63

smoothSolver:  Solving for Ux, Initial residual = 1.53819e-05, Final residual = 1.52057e-06, No Iterations 1
smoothSolver:  Solving for Uy, Initial residual = 0.000782026, Final residual = 7.06959e-05, No Iterations 1
smoothSolver:  Solving for Uz, Initial residual = 0.000998851, Final residual = 8.11706e-05, No Iterations 1
GAMG:  Solving for p, Initial residual = 0.00132872, Final residual = 6.29386e-05, No Iterations 2
time step continuity errors : sum local = 4.58333e-07, global = 1.12302e-07, cumulative = 3.93065e-06
smoothSolver:  Solving for omega, Initial residual = 5.40559e-07, Final residual = 1.84763e-08, No Iterations 2
smoothSolver:  Solving for k, Initial residual = 4.38662e-05, Final residual = 1.19372e-06, No Iterations 2
ExecutionTime = 36.62 s  ClockTime = 36 s

forces forcesFish write:
    Sum of forces
        Total    : (0.137554 0.00662357 -0.00173631)
        Pressure : (0.050005 0.00631046 -0.00173413)
        Viscous  : (0.0875488 0.000313104 -2.18137e-06)
    Sum of moments
        Total    : (1.87557e-05 0.000655869 0.00191828)
        Pressure : (1.84066e-05 0.00065743 0.00185614)
        Viscous  : (3.49102e-07 -1.56022e-06 6.21352e-05)
    writing force and moment files.

Time = 64

smoothSolver:  Solving for Ux, Initial residual = 1.4415e-05, Final residual = 2.75746e-07, No Iterations 2
smoothSolver:  Solving for Uy, Initial residual = 0.000719535, Final residual = 6.52001e-05, No Iterations 1
smoothSolver:  Solving for Uz, Initial residual = 0.00094549, Final residual = 7.62964e-05, No Iterations 1
GAMG:  Solving for p, Initial residual = 0.00126054, Final residual = 6.51086e-05, No Iterations 2
time step continuity errors : sum local = 4.74163e-07, global = 1.46884e-07, cumulative = 4.07754e-06
[...]
        Pressure : (8.74643e-06 0.000387881 0.00210087)
        Viscous  : (3.73612e-07 -1.627e-06 4.00295e-05)
    writing force and moment files.

Time = 166

smoothSolver:  Solving for Ux, Initial residual = 1.51473e-07, Final residual = 1.1604e-08, No Iterations 1
smoothSolver:  Solving for Uy, Initial residual = 1.4751e-05, Final residual = 1.30934e-06, No Iterations 1
smoothSolver:  Solving for Uz, Initial residual = 1.60908e-05, Final residual = 1.42772e-06, No Iterations 1
GAMG:  Solving for p, Initial residual = 1.79326e-05, Final residual = 1.71425e-06, No Iterations 2
time step continuity errors : sum local = 1.24329e-08, global = -4.5259e-09, cumulative = 4.28301e-06
smoothSolver:  Solving for omega, Initial residual = 7.25848e-09, Final residual = 7.25848e-09, No Iterations 0
smoothSolver:  Solving for k, Initial residual = 1.59858e-08, Final residual = 1.09768e-09, No Iterations 1
ExecutionTime = 94.24 s  ClockTime = 94 s

forces forcesFish write:
    Sum of forces
        Total    : (0.135877 0.00732834 -0.00102556)
        Pressure : (0.0495969 0.00704925 -0.00102461)
        Viscous  : (0.0862804 0.000279096 -9.45115e-07)
    Sum of moments
        Total    : (9.08624e-06 0.000385588 0.00214208)
        Pressure : (8.72374e-06 0.000387464 0.00210194)
        Viscous  : (3.62505e-07 -1.87514e-06 4.01339e-05)
    writing force and moment files.

Time = 167

smoothSolver:  Solving for Ux, Initial residual = 1.5525e-07, Final residual = 1.16089e-08, No Iterations 1
smoothSolver:  Solving for Uy, Initial residual = 1.41584e-05, Final residual = 1.24523e-06, No Iterations 1
smoothSolver:  Solving for Uz, Initial residual = 1.53602e-05, Final residual = 1.35255e-06, No Iterations 1
GAMG:  Solving for p, Initial residual = 1.75301e-05, Final residual = 1.6496e-06, No Iterations 2
time step continuity errors : sum local = 1.19641e-08, global = -3.55528e-09, cumulative = 4.27945e-06
smoothSolver:  Solving for omega, Initial residual = 9.2636e-09, Final residual = 9.2636e-09, No Iterations 0
smoothSolver:  Solving for k, Initial residual = 1.55175e-08, Final residual = 1.08424e-09, No Iterations 1
ExecutionTime = 94.76 s  ClockTime = 94 s

forces forcesFish write:
    Sum of forces
        Total    : (0.135878 0.00733104 -0.00102503)
        Pressure : (0.0495981 0.00705213 -0.0010234)
        Viscous  : (0.0862799 0.000278905 -1.63104e-06)
    Sum of moments
        Total    : (9.07365e-06 0.000385401 0.00214312)
        Pressure : (8.69889e-06 0.000387003 0.00210308)
        Viscous  : (3.74759e-07 -1.60218e-06 4.00474e-05)
    writing force and moment files.

Time = 168

smoothSolver:  Solving for Ux, Initial residual = 1.5837e-07, Final residual = 1.15812e-08, No Iterations 1
smoothSolver:  Solving for Uy, Initial residual = 1.37837e-05, Final residual = 1.20414e-06, No Iterations 1
smoothSolver:  Solving for Uz, Initial residual = 1.49157e-05, Final residual = 1.27148e-06, No Iterations 1
GAMG:  Solving for p, Initial residual = 1.67522e-05, Final residual = 1.50836e-06, No Iterations 2
time step continuity errors : sum local = 1.09396e-08, global = -2.53304e-09, cumulative = 4.27692e-06
smoothSolver:  Solving for omega, Initial residual = 8.93285e-09, Final residual = 8.93285e-09, No Iterations 0
smoothSolver:  Solving for k, Initial residual = 1.4838e-08, Final residual = 1.05194e-09, No Iterations 1
ExecutionTime = 95.31 s  ClockTime = 95 s

forces forcesFish write:
    Sum of forces
        Total    : (0.135882 0.00733385 -0.00102331)
        Pressure : (0.0496022 0.00705467 -0.00102238)
        Viscous  : (0.0862802 0.000279177 -9.31082e-07)
    Sum of moments
        Total    : (9.04002e-06 0.000384733 0.00214429)
        Pressure : (8.67768e-06 0.000386614 0.00210413)
        Viscous  : (3.62341e-07 -1.88025e-06 4.01591e-05)
    writing force and moment files.

Time = 169

smoothSolver:  Solving for Ux, Initial residual = 1.61161e-07, Final residual = 1.15741e-08, No Iterations 1
smoothSolver:  Solving for Uy, Initial residual = 1.32258e-05, Final residual = 1.14885e-06, No Iterations 1
smoothSolver:  Solving for Uz, Initial residual = 1.42158e-05, Final residual = 1.22134e-06, No Iterations 1
GAMG:  Solving for p, Initial residual = 1.6159e-05, Final residual = 1.40993e-06, No Iterations 2
time step continuity errors : sum local = 1.02258e-08, global = -1.49749e-09, cumulative = 4.27542e-06
smoothSolver:  Solving for omega, Initial residual = 1.09165e-08, Final residual = 1.21627e-09, No Iterations 1
smoothSolver:  Solving for k, Initial residual = 1.4497e-08, Final residual = 9.52407e-10, No Iterations 1
ExecutionTime = 95.87 s  ClockTime = 96 s

forces forcesFish write:
    Sum of forces
        Total    : (0.135883 0.00733652 -0.00102284)
        Pressure : (0.0496032 0.00705751 -0.00102127)
        Viscous  : (0.0862797 0.000279011 -1.57226e-06)
    Sum of moments
        Total    : (9.0286e-06 0.000384564 0.00214532)
        Pressure : (8.65473e-06 0.000386189 0.00210524)
        Viscous  : (3.73871e-07 -1.62515e-06 4.00829e-05)
    writing force and moment files.

Time = 170

smoothSolver:  Solving for Ux, Initial residual = 1.64555e-07, Final residual = 1.15791e-08, No Iterations 1
smoothSolver:  Solving for Uy, Initial residual = 1.28296e-05, Final residual = 1.11178e-06, No Iterations 1
smoothSolver:  Solving for Uz, Initial residual = 1.38084e-05, Final residual = 1.16277e-06, No Iterations 1
GAMG:  Solving for p, Initial residual = 1.54197e-05, Final residual = 1.26165e-06, No Iterations 2
time step continuity errors : sum local = 9.15045e-09, global = -4.92234e-10, cumulative = 4.27493e-06
smoothSolver:  Solving for omega, Initial residual = 7.27275e-09, Final residual = 7.27275e-09, No Iterations 0
smoothSolver:  Solving for k, Initial residual = 1.38723e-08, Final residual = 9.07384e-10, No Iterations 1
ExecutionTime = 96.41 s  ClockTime = 96 s

forces forcesFish write:
    Sum of forces
        Total    : (0.135887 0.00733927 -0.00102127)
        Pressure : (0.0496069 0.00706001 -0.00102032)
        Viscous  : (0.08628 0.000279263 -9.54064e-07)
    Sum of moments
        Total    : (8.99778e-06 0.000383955 0.00214645)
        Pressure : (8.63491e-06 0.000385826 0.00210626)
        Viscous  : (3.62874e-07 -1.87067e-06 4.01863e-05)
    writing force and moment files.

Time = 171

smoothSolver:  Solving for Ux, Initial residual = 1.65872e-07, Final residual = 1.15697e-08, No Iterations 1
smoothSolver:  Solving for Uy, Initial residual = 1.23212e-05, Final residual = 1.06923e-06, No Iterations 1
smoothSolver:  Solving for Uz, Initial residual = 1.32666e-05, Final residual = 1.13614e-06, No Iterations 1
GAMG:  Solving for p, Initial residual = 1.49782e-05, Final residual = 1.17389e-06, No Iterations 2
time step continuity errors : sum local = 8.51401e-09, global = 4.89314e-10, cumulative = 4.27542e-06
smoothSolver:  Solving for omega, Initial residual = 7.00791e-09, Final residual = 7.00791e-09, No Iterations 0
smoothSolver:  Solving for k, Initial residual = 1.33794e-08, Final residual = 9.05928e-10, No Iterations 1
ExecutionTime = 96.97 s  ClockTime = 97 s

forces forcesFish write:
    Sum of forces
        Total    : (0.135887 0.00734182 -0.0010209)
        Pressure : (0.0496077 0.00706276 -0.00101927)
        Viscous  : (0.0862795 0.000279066 -1.62952e-06)
    Sum of moments
        Total    : (8.9882e-06 0.000383825 0.00214743)
        Pressure : (8.61327e-06 0.000385427 0.00210734)
        Viscous  : (3.74933e-07 -1.60191e-06 4.00982e-05)
    writing force and moment files.

Time = 172

smoothSolver:  Solving for Ux, Initial residual = 1.65623e-07, Final residual = 1.14477e-08, No Iterations 1
smoothSolver:  Solving for Uy, Initial residual = 1.19715e-05, Final residual = 1.04214e-06, No Iterations 1
smoothSolver:  Solving for Uz, Initial residual = 1.29846e-05, Final residual = 1.09284e-06, No Iterations 1
GAMG:  Solving for p, Initial residual = 1.42132e-05, Final residual = 1.02321e-06, No Iterations 2
time step continuity errors : sum local = 7.42115e-09, global = 1.40878e-09, cumulative = 4.27683e-06
smoothSolver:  Solving for omega, Initial residual = 8.63597e-09, Final residual = 8.63597e-09, No Iterations 0
smoothSolver:  Solving for k, Initial residual = 1.29302e-08, Final residual = 8.95649e-10, No Iterations 1
ExecutionTime = 97.5 s  ClockTime = 97 s

forces forcesFish write:
    Sum of forces
        Total    : (0.135891 0.00734446 -0.00101935)
        Pressure : (0.0496114 0.00706512 -0.00101841)
        Viscous  : (0.0862798 0.000279334 -9.32708e-07)
    Sum of moments
        Total    : (8.95793e-06 0.000383222 0.00214852)
        Pressure : (8.59536e-06 0.0003851 0.00210831)
        Viscous  : (3.62566e-07 -1.87875e-06 4.02087e-05)
    writing force and moment files.

Time = 173

smoothSolver:  Solving for Ux, Initial residual = 1.62626e-07, Final residual = 1.12107e-08, No Iterations 1
smoothSolver:  Solving for Uy, Initial residual = 1.14385e-05, Final residual = 9.97036e-07, No Iterations 1
smoothSolver:  Solving for Uz, Initial residual = 1.24122e-05, Final residual = 1.06636e-06, No Iterations 1
GAMG:  Solving for p, Initial residual = 1.36769e-05, Final residual = 9.50037e-07, No Iterations 2
time step continuity errors : sum local = 6.89048e-09, global = 2.25743e-09, cumulative = 4.27908e-06
smoothSolver:  Solving for omega, Initial residual = 8.35488e-09, Final residual = 8.35488e-09, No Iterations 0
smoothSolver:  Solving for k, Initial residual = 1.26854e-08, Final residual = 8.91899e-10, No Iterations 1
ExecutionTime = 98.05 s  ClockTime = 98 s

forces forcesFish write:
    Sum of forces
        Total    : (0.135892 0.0073469 -0.00101904)
        Pressure : (0.0496122 0.00706773 -0.00101746)
        Viscous  : (0.0862794 0.000279163 -1.57924e-06)
    Sum of moments
        Total    : (8.94995e-06 0.000383118 0.00214946)
        Pressure : (8.57576e-06 0.000384739 0.00210933)
        Viscous  : (3.74185e-07 -1.62156e-06 4.01314e-05)
    writing force and moment files.

Time = 174

smoothSolver:  Solving for Ux, Initial residual = 1.58447e-07, Final residual = 1.08677e-08, No Iterations 1
smoothSolver:  Solving for Uy, Initial residual = 1.10588e-05, Final residual = 9.66463e-07, No Iterations 1
smoothSolver:  Solving for Uz, Initial residual = 1.20988e-05, Final residual = 1.02462e-06, No Iterations 1
GAMG:  Solving for p, Initial residual = 1.30779e-05, Final residual = 8.72252e-07, No Iterations 2
time step continuity errors : sum local = 6.32633e-09, global = 2.96826e-09, cumulative = 4.28205e-06
smoothSolver:  Solving for omega, Initial residual = 1.00298e-08, Final residual = 1.13901e-09, No Iterations 1
smoothSolver:  Solving for k, Initial residual = 1.24855e-08, Final residual = 7.9569e-10, No Iterations 1
ExecutionTime = 98.57 s  ClockTime = 98 s

forces forcesFish write:
    Sum of forces
        Total    : (0.135895 0.00734937 -0.00101764)
        Pressure : (0.0496156 0.00706996 -0.00101669)
        Viscous  : (0.0862796 0.000279411 -9.57742e-07)
    Sum of moments
        Total    : (8.92249e-06 0.000382574 0.00215048)
        Pressure : (8.55937e-06 0.000384442 0.00211025)
        Viscous  : (3.63125e-07 -1.86843e-06 4.02334e-05)
    writing force and moment files.

Time = 175

smoothSolver:  Solving for Ux, Initial residual = 1.51219e-07, Final residual = 1.04422e-08, No Iterations 1
smoothSolver:  Solving for Uy, Initial residual = 1.05959e-05, Final residual = 9.29012e-07, No Iterations 1
smoothSolver:  Solving for Uz, Initial residual = 1.16106e-05, Final residual = 1.00701e-06, No Iterations 1
GAMG:  Solving for p, Initial residual = 1.28795e-05, Final residual = 9.40881e-07, No Iterations 2
time step continuity errors : sum local = 6.82416e-09, global = 3.60611e-09, cumulative = 4.28566e-06
smoothSolver:  Solving for omega, Initial residual = 6.90837e-09, Final residual = 6.90837e-09, No Iterations 0
smoothSolver:  Solving for k, Initial residual = 1.21816e-08, Final residual = 7.75667e-10, No Iterations 1
ExecutionTime = 99.12 s  ClockTime = 99 s

forces forcesFish write:
    Sum of forces
        Total    : (0.135895 0.00735162 -0.00101744)
        Pressure : (0.0496161 0.00707242 -0.00101581)
        Viscous  : (0.0862792 0.000279206 -1.63261e-06)
    Sum of moments
        Total    : (8.91634e-06 0.000382509 0.00215134)
        Pressure : (8.54117e-06 0.000384109 0.0021112)
        Viscous  : (3.75177e-07 -1.59995e-06 4.01427e-05)
    writing force and moment files.

Time = 176

smoothSolver:  Solving for Ux, Initial residual = 1.42984e-07, Final residual = 9.92421e-09, No Iterations 1
smoothSolver:  Solving for Uy, Initial residual = 1.02938e-05, Final residual = 9.0723e-07, No Iterations 1
smoothSolver:  Solving for Uz, Initial residual = 1.13894e-05, Final residual = 9.71214e-07, No Iterations 1
GAMG:  Solving for p, Initial residual = 1.23904e-05, Final residual = 1.00973e-06, No Iterations 2
time step continuity errors : sum local = 7.32351e-09, global = 4.04827e-09, cumulative = 4.28971e-06
smoothSolver:  Solving for omega, Initial residual = 6.31455e-09, Final residual = 6.31455e-09, No Iterations 0
smoothSolver:  Solving for k, Initial residual = 1.16882e-08, Final residual = 7.73879e-10, No Iterations 1
ExecutionTime = 99.67 s  ClockTime = 99 s

forces forcesFish write:
    Sum of forces
        Total    : (0.135899 0.00735393 -0.00101605)
        Pressure : (0.0496196 0.00707446 -0.00101512)
        Viscous  : (0.0862795 0.00027947 -9.36678e-07)
    Sum of moments
        Total    : (8.88928e-06 0.000381969 0.0021523)
        Pressure : (8.52646e-06 0.000383845 0.00211205)
        Viscous  : (3.62812e-07 -1.87646e-06 4.02521e-05)
    writing force and moment files.

Time = 177

smoothSolver:  Solving for Ux, Initial residual = 1.30705e-07, Final residual = 9.21768e-09, No Iterations 1
smoothSolver:  Solving for Uy, Initial residual = 9.82028e-06, Final residual = 8.65948e-07, No Iterations 1
smoothSolver:  Solving for Uz, Initial residual = 1.08328e-05, Final residual = 9.45853e-07, No Iterations 1
GAMG:  Solving for p, Initial residual = 1.20857e-05, Final residual = 1.11378e-06, No Iterations 2
time step continuity errors : sum local = 8.07828e-09, global = 4.41187e-09, cumulative = 4.29412e-06
smoothSolver:  Solving for omega, Initial residual = 7.98791e-09, Final residual = 7.98791e-09, No Iterations 0
smoothSolver:  Solving for k, Initial residual = 1.14328e-08, Final residual = 7.73879e-10, No Iterations 1
ExecutionTime = 100.21 s  ClockTime = 100 s

forces forcesFish write:
    Sum of forces
        Total    : (0.135899 0.00735603 -0.0010159)
        Pressure : (0.0496202 0.00707674 -0.00101432)
        Viscous  : (0.0862791 0.000279294 -1.58355e-06)
    Sum of moments
        Total    : (8.88425e-06 0.000381923 0.0021531)
        Pressure : (8.50982e-06 0.000383542 0.00211293)
        Viscous  : (3.74434e-07 -1.61917e-06 4.01735e-05)
    writing force and moment files.

Time = 178

smoothSolver:  Solving for Ux, Initial residual = 1.17842e-07, Final residual = 8.4376e-09, No Iterations 1
smoothSolver:  Solving for Uy, Initial residual = 9.49164e-06, Final residual = 8.38975e-07, No Iterations 1
smoothSolver:  Solving for Uz, Initial residual = 1.05322e-05, Final residual = 9.06105e-07, No Iterations 1
GAMG:  Solving for p, Initial residual = 1.16461e-05, Final residual = 1.15338e-06, No Iterations 2
time step continuity errors : sum local = 8.36559e-09, global = 4.56194e-09, cumulative = 4.29868e-06
smoothSolver:  Solving for omega, Initial residual = 7.46944e-09, Final residual = 7.46944e-09, No Iterations 0
smoothSolver:  Solving for k, Initial residual = 1.11182e-08, Final residual = 7.67873e-10, No Iterations 1
ExecutionTime = 100.75 s  ClockTime = 100 s

forces forcesFish write:
    Sum of forces
        Total    : (0.135903 0.00735817 -0.00101465)
        Pressure : (0.0496234 0.00707863 -0.00101369)
        Viscous  : (0.0862794 0.000279535 -9.6394e-07)
    Sum of moments
        Total    : (8.85965e-06 0.000381436 0.00215399)
        Pressure : (8.49624e-06 0.000383302 0.00211372)
        Viscous  : (3.63403e-07 -1.8653e-06 4.02732e-05)
    writing force and moment files.

Time = 179

smoothSolver:  Solving for Ux, Initial residual = 1.01698e-07, Final residual = 7.55895e-09, No Iterations 1
smoothSolver:  Solving for Uy, Initial residual = 9.08635e-06, Final residual = 8.0486e-07, No Iterations 1
smoothSolver:  Solving for Uz, Initial residual = 1.00568e-05, Final residual = 8.86499e-07, No Iterations 1
GAMG:  Solving for p, Initial residual = 1.15484e-05, Final residual = 9.57773e-07, No Iterations 3
time step continuity errors : sum local = 6.9469e-09, global = 3.2723e-09, cumulative = 4.30195e-06
smoothSolver:  Solving for omega, Initial residual = 9.16665e-09, Final residual = 9.16665e-09, No Iterations 0
smoothSolver:  Solving for k, Initial residual = 1.09493e-08, Final residual = 7.80582e-10, No Iterations 1
ExecutionTime = 101.32 s  ClockTime = 101 s

forces forcesFish write:
    Sum of forces
        Total    : (0.135903 0.00736019 -0.00101443)
        Pressure : (0.0496244 0.00708086 -0.00101281)
        Viscous  : (0.0862789 0.000279324 -1.62799e-06)
    Sum of moments
        Total    : (8.85351e-06 0.000381367 0.00215477)
        Pressure : (8.47825e-06 0.000382968 0.00211459)
        Viscous  : (3.7526e-07 -1.60114e-06 4.01805e-05)
    writing force and moment files.

Time = 180

smoothSolver:  Solving for Ux, Initial residual = 6.74626e-08, Final residual = 5.68907e-09, No Iterations 1
smoothSolver:  Solving for Uy, Initial residual = 8.94976e-06, Final residual = 7.97851e-07, No Iterations 1
smoothSolver:  Solving for Uz, Initial residual = 1.00242e-05, Final residual = 8.91119e-07, No Iterations 1
GAMG:  Solving for p, Initial residual = 1.1029e-05, Final residual = 8.54884e-07, No Iterations 3
time step continuity errors : sum local = 6.20074e-09, global = 2.99263e-09, cumulative = 4.30495e-06
smoothSolver:  Solving for omega, Initial residual = 8.53164e-09, Final residual = 8.53164e-09, No Iterations 0
smoothSolver:  Solving for k, Initial residual = 1.04967e-08, Final residual = 7.60009e-10, No Iterations 1
ExecutionTime = 101.89 s  ClockTime = 102 s

forces forcesFish write:
    Sum of forces
        Total    : (0.135908 0.00736202 -0.00101317)
        Pressure : (0.0496284 0.00708243 -0.00101223)
        Viscous  : (0.0862792 0.000279584 -9.42091e-07)
    Sum of moments
        Total    : (8.82877e-06 0.000380875 0.00215555)
        Pressure : (8.4657e-06 0.000382749 0.00211526)
        Viscous  : (3.63069e-07 -1.87368e-06 4.02888e-05)
    writing force and moment files.

Time = 181

smoothSolver:  Solving for Ux, Initial residual = 5.17114e-08, Final residual = 4.83754e-09, No Iterations 1
smoothSolver:  Solving for Uy, Initial residual = 8.53973e-06, Final residual = 7.6229e-07, No Iterations 1
smoothSolver:  Solving for Uz, Initial residual = 9.55392e-06, Final residual = 8.78488e-07, No Iterations 1
GAMG:  Solving for p, Initial residual = 1.06587e-05, Final residual = 9.91572e-07, No Iterations 2
time step continuity errors : sum local = 7.19236e-09, global = 3.29342e-09, cumulative = 4.30824e-06
smoothSolver:  Solving for omega, Initial residual = 1.01556e-08, Final residual = 1.15453e-09, No Iterations 1
smoothSolver:  Solving for k, Initial residual = 1.03338e-08, Final residual = 6.54329e-10, No Iterations 1
ExecutionTime = 102.44 s  ClockTime = 102 s


SIMPLE solution converged in 181 iterations

forces forcesFish write:
    Sum of forces
        Total    : (0.135908 0.00736354 -0.0010132)
        Pressure : (0.0496288 0.00708414 -0.00101161)
        Viscous  : (0.0862788 0.000279404 -1.59174e-06)
    Sum of moments
        Total    : (8.82712e-06 0.000380899 0.00215613)
        Pressure : (8.45239e-06 0.000382514 0.00211592)
        Viscous  : (3.74734e-07 -1.6153e-06 4.02087e-05)
    writing force and moment files.

End

