/*---------------------------------------------------------------------------*\
| =========                 |                                                 |
| \\      /  F ield         | OpenFOAM: The Open Source CFD Toolbox           |
|  \\    /   O peration     | Version:  2512                                  |
|   \\  /    A nd           | Website:  www.openfoam.com                      |
|    \\/     M anipulation  |                                                 |
\*---------------------------------------------------------------------------*/
Build  : _bd2b6720-20260127 OPENFOAM=2512 version=2512
Arch   : "LSB;label=32;scalar=64"
Exec   : simpleFoam
Date   : Mar 28 2026
Time   : 17:52:39
Host   : mathias-laptop
PID    : 11635
I/O    : uncollated
Case   : /home/mat/OpenFOAM/mat-run/speed_sweep_runs/U_1p2
nProcs : 1
trapFpe: Floating point exception trapping enabled (FOAM_SIGFPE).
memory pool : not available
fileModificationChecking : Monitoring run-time modified files using timeStampMaster (fileModificationSkew 5, maxFileModificationPolls 20)
allowSystemOperations : Allowing user-supplied system call operations

// * * * * * * * * * * * * * * * * * * * * * * * * * * * * * * * * * * * * * //
Create time

Create mesh for time = 0


SIMPLE: convergence criteria
    field p	 tolerance 0.0001
    field U	 tolerance 1e-05
    field "(k|omega)"	 tolerance 1e-05

Reading field p

Reading field U

Reading/calculating face flux field phi

Selecting incompressible transport model Newtonian
Selecting turbulence model type RAS
Selecting RAS turbulence model kOmegaSST
Selecting patchDistMethod meshWave
RAS
{
    RASModel        kOmegaSST;
    turbulence      on;
    printCoeffs     on;
    alphaK1         0.85;
    alphaK2         1;
    alphaOmega1     0.5;
    alphaOmega2     0.856;
    gamma1          0.555556;
    gamma2          0.44;
    beta1           0.075;
    beta2           0.0828;
    betaStar        0.09;
    a1              0.31;
    b1              1;
    c1              10;
    F3              false;
    decayControl    false;
    kInf            0;
    omegaInf        0;
}

No MRF models present

No finite volume options present

Starting time loop

forces forcesFish:
    rho: rhoInf
    Freestream density (rhoInf) set to 1000
    Not including porosity effects

Time = 1

smoothSolver:  Solving for Ux, Initial residual = 0.999999, Final residual = 0.03844, No Iterations 2
smoothSolver:  Solving for Uy, Initial residual = 1, Final residual = 0.0654185, No Iterations 2
smoothSolver:  Solving for Uz, Initial residual = 1, Final residual = 0.0567744, No Iterations 2
GAMG:  Solving for p, Initial residual = 1, Final residual = 0.0503311, No Iterations 5
time step continuity errors : sum local = 1.71904e-05, global = -2.06973e-06, cumulative = -2.06973e-06
smoothSolver:  Solving for omega, Initial residual = 0.00529972, Final residual = 0.000168334, No Iterations 1
bounding omega, min: -15.055 max: 11487.6 average: 123.939
smoothSolver:  Solving for k, Initial residual = 1, Final residual = 0.0273301, No Iterations 1
ExecutionTime = 2.35 s  ClockTime = 2 s

forces forcesFish write:
    Sum of forces
        Total    : (2.10007 0.305241 -0.000149973)
        Pressure : (1.84439 0.304963 -0.000150946)
        Viscous  : (0.255677 0.000277994 9.73216e-07)
    Sum of moments
        Total    : (-0.00030748 0.000675112 0.133717)
        Pressure : (-0.000307184 0.000677549 0.133438)
        Viscous  : (-2.96086e-07 -2.4365e-06 0.000279059)
    writing force and moment files.

Time = 2

smoothSolver:  Solving for Ux, Initial residual = 0.0143317, Final residual = 0.000579216, No Iterations 2
smoothSolver:  Solving for Uy, Initial residual = 0.0758766, Final residual = 0.00485967, No Iterations 2
smoothSolver:  Solving for Uz, Initial residual = 0.347228, Final residual = 0.024142, No Iterations 2
GAMG:  Solving for p, Initial residual = 0.252601, Final residual = 0.020538, No Iterations 3
time step continuity errors : sum local = 3.70813e-05, global = -2.15883e-06, cumulative = -4.22855e-06
smoothSolver:  Solving for omega, Initial residual = 0.00338694, Final residual = 9.82926e-05, No Iterations 1
smoothSolver:  Solving for k, Initial residual = 0.382699, Final residual = 0.010701, No Iterations 1
ExecutionTime = 2.94 s  ClockTime = 3 s

forces forcesFish write:
    Sum of forces
        Total    : (2.71147 0.416651 0.00271865)
        Pressure : (2.45326 0.4165 0.0027245)
        Viscous  : (0.25821 0.000150997 -5.85187e-06)
    Sum of moments
        Total    : (-0.000352098 3.99055e-05 0.175611)
        Pressure : (-0.00035235 4.53497e-05 0.175408)
        Viscous  : (2.51484e-07 -5.4442e-06 0.00020355)
    writing force and moment files.

Time = 3

smoothSolver:  Solving for Ux, Initial residual = 0.00442062, Final residual = 0.000186556, No Iterations 2
smoothSolver:  Solving for Uy, Initial residual = 0.0354989, Final residual = 0.00225142, No Iterations 2
smoothSolver:  Solving for Uz, Initial residual = 0.217077, Final residual = 0.0149064, No Iterations 2
GAMG:  Solving for p, Initial residual = 0.379823, Final residual = 0.0154353, No Iterations 3
time step continuity errors : sum local = 2.55977e-05, global = -2.33521e-06, cumulative = -6.56376e-06
smoothSolver:  Solving for omega, Initial residual = 0.00244923, Final residual = 7.40643e-05, No Iterations 1
smoothSolver:  Solving for k, Initial residual = 0.216617, Final residual = 0.00618557, No Iterations 1
ExecutionTime = 3.52 s  ClockTime = 3 s

forces forcesFish write:
    Sum of forces
        Total    : (2.63674 0.397234 -0.000838917)
        Pressure : (2.37568 0.397256 -0.00082952)
        Viscous  : (0.261059 -2.24981e-05 -9.39707e-06)
    Sum of moments
        Total    : (-0.000310159 0.000634409 0.164549)
        Pressure : (-0.00031096 0.000642399 0.164443)
        Viscous  : (8.0128e-07 -7.99039e-06 0.000106233)
    writing force and moment files.

Time = 4

smoothSolver:  Solving for Ux, Initial residual = 0.00247448, Final residual = 0.000104087, No Iterations 2
smoothSolver:  Solving for Uy, Initial residual = 0.0200141, Final residual = 0.00125375, No Iterations 2
smoothSolver:  Solving for Uz, Initial residual = 0.135808, Final residual = 0.00914843, No Iterations 2
GAMG:  Solving for p, Initial residual = 0.160379, Final residual = 0.00722548, No Iterations 3
time step continuity errors : sum local = 3.93888e-05, global = -2.28841e-06, cumulative = -8.85217e-06
smoothSolver:  Solving for omega, Initial residual = 0.0018635, Final residual = 5.8583e-05, No Iterations 1
smoothSolver:  Solving for k, Initial residual = 0.141193, Final residual = 0.00410205, No Iterations 1
ExecutionTime = 4.11 s  ClockTime = 4 s

forces forcesFish write:
    Sum of forces
        Total    : (2.17038 0.302419 -0.00644769)
        Pressure : (1.90667 0.302614 -0.00644055)
        Viscous  : (0.263715 -0.000195481 -7.13998e-06)
    Sum of moments
        Total    : (-0.000208239 0.00164192 0.12318)
        Pressure : (-0.000209397 0.00165204 0.123161)
        Viscous  : (1.15766e-06 -1.01239e-05 1.90428e-05)
    writing force and moment files.

Time = 5

smoothSolver:  Solving for Ux, Initial residual = 0.00155647, Final residual = 6.33445e-05, No Iterations 2
smoothSolver:  Solving for Uy, Initial residual = 0.0115854, Final residual = 0.000707398, No Iterations 2
smoothSolver:  Solving for Uz, Initial residual = 0.0834857, Final residual = 0.00542009, No Iterations 2
GAMG:  Solving for p, Initial residual = 0.0849043, Final residual = 0.00432892, No Iterations 3
time step continuity errors : sum local = 4.70273e-05, global = -1.61689e-06, cumulative = -1.04691e-05
smoothSolver:  Solving for omega, Initial residual = 0.00146172, Final residual = 4.73748e-05, No Iterations 1
smoothSolver:  Solving for k, Initial residual = 0.0999643, Final residual = 0.00294768, No Iterations 1
ExecutionTime = 4.7 s  ClockTime = 5 s

forces forcesFish write:
    Sum of forces
        Total    : (1.54787 0.181659 -0.0109323)
        Pressure : (1.28154 0.181996 -0.0109305)
        Viscous  : (0.266335 -0.00033627 -1.72946e-06)
    Sum of moments
        Total    : (-7.48103e-05 0.00254505 0.07141)
        Pressure : (-7.60497e-05 0.00255614 0.0714497)
        Viscous  : (1.23942e-06 -1.10921e-05 -3.97324e-05)
    writing force and moment files.

Time = 6

smoothSolver:  Solving for Ux, Initial residual = 0.00110736, Final residual = 4.01156e-05, No Iterations 2
smoothSolver:  Solving for Uy, Initial residual = 0.00674743, Final residual = 0.000343624, No Iterations 2
smoothSolver:  Solving for Uz, Initial residual = 0.0484433, Final residual = 0.00248487, No Iterations 2
GAMG:  Solving for p, Initial residual = 0.0492246, Final residual = 0.00267262, No Iterations 3
time step continuity errors : sum local = 4.41705e-05, global = -4.9838e-07, cumulative = -1.09674e-05
smoothSolver:  Solving for omega, Initial residual = 0.00117245, Final residual = 3.88618e-05, No Iterations 1
smoothSolver:  Solving for k, Initial residual = 0.0746946, Final residual = 0.00223332, No Iterations 1
ExecutionTime = 5.27 s  ClockTime = 5 s

forces forcesFish write:
    Sum of forces
        Total    : (0.950842 0.0725666 -0.0120164)
        Pressure : (0.681946 0.0729783 -0.0120127)
        Viscous  : (0.268896 -0.000411633 -3.71953e-06)
    Sum of moments
        Total    : (5.59103e-05 0.00277121 0.0245628)
        Pressure : (5.4751e-05 0.00277861 0.0246226)
        Viscous  : (1.15935e-06 -7.40304e-06 -5.97973e-05)
    writing force and moment files.

Time = 7

smoothSolver:  Solving for Ux, Initial residual = 0.000929704, Final residual = 2.78057e-05, No Iterations 2
smoothSolver:  Solving for Uy, Initial residual = 0.00537508, Final residual = 0.000176625, No Iterations 2
smoothSolver:  Solving for Uz, Initial residual = 0.0427601, Final residual = 0.00146252, No Iterations 2
GAMG:  Solving for p, Initial residual = 0.0324948, Final residual = 0.00163375, No Iterations 3
time step continuity errors : sum local = 3.47742e-05, global = 7.10854e-07, cumulative = -1.02566e-05
smoothSolver:  Solving for omega, Initial residual = 0.000957294, Final residual = 3.22945e-05, No Iterations 1
smoothSolver:  Solving for k, Initial residual = 0.0580275, Final residual = 0.00175765, No Iterations 1
ExecutionTime = 5.85 s  ClockTime = 6 s

forces forcesFish write:
    Sum of forces
        Total    : (0.490337 -0.00329687 -0.0100062)
        Pressure : (0.219002 -0.0028631 -0.0100177)
        Viscous  : (0.271336 -0.000433761 1.14483e-05)
    Sum of moments
        Total    : (0.000161109 0.00240621 -0.00843008)
        Pressure : (0.000160331 0.00241635 -0.00837769)
        Viscous  : (7.78292e-07 -1.01411e-05 -5.23878e-05)
    writing force and moment files.

Time = 8

smoothSolver:  Solving for Ux, Initial residual = 0.00086795, Final residual = 2.41259e-05, No Iterations 2
smoothSolver:  Solving for Uy, Initial residual = 0.00650906, Final residual = 0.000270424, No Iterations 2
smoothSolver:  Solving for Uz, Initial residual = 0.0661941, Final residual = 0.00331382, No Iterations 2
GAMG:  Solving for p, Initial residual = 0.026261, Final residual = 0.00236161, No Iterations 2
time step continuity errors : sum local = 5.74063e-05, global = 1.50382e-06, cumulative = -8.75277e-06
smoothSolver:  Solving for omega, Initial residual = 0.000793425, Final residual = 2.71838e-05, No Iterations 1
smoothSolver:  Solving for k, Initial residual = 0.0464657, Final residual = 0.00142551, No Iterations 1
ExecutionTime = 6.42 s  ClockTime = 6 s

forces forcesFish write:
    Sum of forces
        Total    : (0.231169 -0.0376403 -0.00958258)
        Pressure : (-0.0423727 -0.037216 -0.00959834)
        Viscous  : (0.273542 -0.000424272 1.57616e-05)
    Sum of moments
        Total    : (0.000190128 0.0022564 -0.0238192)
        Pressure : (0.000189674 0.00226531 -0.0237865)
        Viscous  : (4.53549e-07 -8.91568e-06 -3.26754e-05)
    writing force and moment files.

Time = 9

smoothSolver:  Solving for Ux, Initial residual = 0.000841328, Final residual = 2.29875e-05, No Iterations 2
smoothSolver:  Solving for Uy, Initial residual = 0.00735169, Final residual = 0.000335549, No Iterations 2
smoothSolver:  Solving for Uz, Initial residual = 0.0811903, Final residual = 0.00439883, No Iterations 2
GAMG:  Solving for p, Initial residual = 0.0277805, Final residual = 0.00205148, No Iterations 2
time step continuity errors : sum local = 5.16667e-05, global = 2.87143e-06, cumulative = -5.88135e-06
smoothSolver:  Solving for omega, Initial residual = 0.00066585, Final residual = 2.31413e-05, No Iterations 1
smoothSolver:  Solving for k, Initial residual = 0.0381018, Final residual = 0.00118338, No Iterations 1
ExecutionTime = 6.97 s  ClockTime = 7 s

forces forcesFish write:
    Sum of forces
        Total    : (0.125788 -0.0394673 -0.00640837)
        Pressure : (-0.149731 -0.0390977 -0.00642454)
        Viscous  : (0.275519 -0.000369581 1.61675e-05)
    Sum of moments
        Total    : (0.000198535 0.00156286 -0.025671)
        Pressure : (0.000198309 0.00156984 -0.0256705)
        Viscous  : (2.2651e-07 -6.97563e-06 -4.97683e-07)
    writing force and moment files.

Time = 10

smoothSolver:  Solving for Ux, Initial residual = 0.000813432, Final residual = 2.14021e-05, No Iterations 2
smoothSolver:  Solving for Uy, Initial residual = 0.00735673, Final residual = 0.000337351, No Iterations 2
smoothSolver:  Solving for Uz, Initial residual = 0.0761299, Final residual = 0.00411206, No Iterations 2
GAMG:  Solving for p, Initial residual = 0.0312573, Final residual = 0.00239568, No Iterations 2
time step continuity errors : sum local = 5.90812e-05, global = 4.21051e-06, cumulative = -1.67083e-06
smoothSolver:  Solving for omega, Initial residual = 0.000564646, Final residual = 1.98905e-05, No Iterations 1
smoothSolver:  Solving for k, Initial residual = 0.0318426, Final residual = 0.00100039, No Iterations 1
ExecutionTime = 7.51 s  ClockTime = 7 s

forces forcesFish write:
    Sum of forces
        Total    : (0.130901 -0.0195136 -0.00181807)
        Pressure : (-0.146277 -0.0192398 -0.00183806)
        Viscous  : (0.277178 -0.000273779 1.99854e-05)
    Sum of moments
        Total    : (0.000188622 0.0006471 -0.0183049)
        Pressure : (0.000188584 0.000654598 -0.0183446)
        Viscous  : (3.79958e-08 -7.49792e-06 3.96414e-05)
    writing force and moment files.

Time = 11

smoothSolver:  Solving for Ux, Initial residual = 0.000763716, Final residual = 1.88406e-05, No Iterations 2
smoothSolver:  Solving for Uy, Initial residual = 0.00664142, Final residual = 0.000285673, No Iterations 2
smoothSolver:  Solving for Uz, Initial residual = 0.0625851, Final residual = 0.00314844, No Iterations 2
GAMG:  Solving for p, Initial residual = 0.0341007, Final residual = 0.0026737, No Iterations 2
time step continuity errors : sum local = 6.19839e-05, global = 5.20184e-06, cumulative = 3.53101e-06
smoothSolver:  Solving for omega, Initial residual = 0.000482883, Final residual = 1.72493e-05, No Iterations 1
smoothSolver:  Solving for k, Initial residual = 0.0270148, Final residual = 0.000857592, No Iterations 1
ExecutionTime = 8.06 s  ClockTime = 8 s

forces forcesFish write:
    Sum of forces
        Total    : (0.202068 0.0114402 0.00274742)
        Pressure : (-0.0763453 0.0115845 0.002725)
        Viscous  : (0.278413 -0.000144279 2.24154e-05)
    Sum of moments
        Total    : (0.000164289 -0.000146004 -0.00608307)
        Pressure : (0.000164302 -0.000137498 -0.00616738)
        Viscous  : (-1.2966e-08 -8.50632e-06 8.43085e-05)
    writing force and moment files.

Time = 12

smoothSolver:  Solving for Ux, Initial residual = 0.000693236, Final residual = 1.57823e-05, No Iterations 2
smoothSolver:  Solving for Uy, Initial residual = 0.00573851, Final residual = 0.00020843, No Iterations 2
smoothSolver:  Solving for Uz, Initial residual = 0.048688, Final residual = 0.00201775, No Iterations 2
GAMG:  Solving for p, Initial residual = 0.0353128, Final residual = 0.00282079, No Iterations 2
time step continuity errors : sum local = 5.94781e-05, global = 5.69465e-06, cumulative = 9.22566e-06
smoothSolver:  Solving for omega, Initial residual = 0.000415811, Final residual = 1.50573e-05, No Iterations 1
smoothSolver:  Solving for k, Initial residual = 0.0231932, Final residual = 0.000743042, No Iterations 1
ExecutionTime = 8.62 s  ClockTime = 8 s

forces forcesFish write:
    Sum of forces
        Total    : (0.300208 0.0427145 0.00614047)
        Pressure : (0.0209984 0.0427283 0.00611562)
        Viscous  : (0.27921 -1.38068e-05 2.48426e-05)
    Sum of moments
        Total    : (0.000128667 -0.000606917 0.00681718)
        Pressure : (0.000128659 -0.000596594 0.00669459)
        Viscous  : (7.92793e-09 -1.03226e-05 0.000122584)
    writing force and moment files.

Time = 13

smoothSolver:  Solving for Ux, Initial residual = 0.000617864, Final residual = 1.328e-05, No Iterations 2
smoothSolver:  Solving for Uy, Initial residual = 0.00524453, Final residual = 0.000159829, No Iterations 2
smoothSolver:  Solving for Uz, Initial residual = 0.0401137, Final residual = 0.00120697, No Iterations 2
GAMG:  Solving for p, Initial residual = 0.0352057, Final residual = 0.00277863, No Iterations 2
time step continuity errors : sum local = 5.22835e-05, global = 5.69747e-06, cumulative = 1.49231e-05
smoothSolver:  Solving for omega, Initial residual = 0.000360286, Final residual = 1.32262e-05, No Iterations 1
smoothSolver:  Solving for k, Initial residual = 0.0200998, Final residual = 0.000648949, No Iterations 1
ExecutionTime = 9.17 s  ClockTime = 9 s

forces forcesFish write:
    Sum of forces
        Total    : (0.394466 0.0665132 0.00741148)
        Pressure : (0.114877 0.0663941 0.00738871)
        Viscous  : (0.27959 0.000119128 2.27702e-05)
    Sum of moments
        Total    : (9.01777e-05 -0.000546317 0.0173128)
        Pressure : (9.00264e-05 -0.000535584 0.0171547)
        Viscous  : (1.51293e-07 -1.07327e-05 0.00015806)
    writing force and moment files.

Time = 14

smoothSolver:  Solving for Ux, Initial residual = 0.000548645, Final residual = 1.1891e-05, No Iterations 2
smoothSolver:  Solving for Uy, Initial residual = 0.00541054, Final residual = 0.000171613, No Iterations 2
smoothSolver:  Solving for Uz, Initial residual = 0.0417566, Final residual = 0.00140932, No Iterations 2
GAMG:  Solving for p, Initial residual = 0.035972, Final residual = 0.00257994, No Iterations 2
time step continuity errors : sum local = 4.32645e-05, global = 5.29898e-06, cumulative = 2.02221e-05
smoothSolver:  Solving for omega, Initial residual = 0.000313797, Final residual = 1.16783e-05, No Iterations 1
smoothSolver:  Solving for k, Initial residual = 0.017553, Final residual = 0.000570401, No Iterations 1
ExecutionTime = 9.73 s  ClockTime = 10 s

forces forcesFish write:
    Sum of forces
        Total    : (0.465854 0.0789901 0.0065349)
        Pressure : (0.186191 0.0787733 0.00651547)
        Viscous  : (0.279664 0.000216775 1.94254e-05)
    Sum of moments
        Total    : (5.50367e-05 -3.49933e-05 0.0237575)
        Pressure : (5.47296e-05 -2.43312e-05 0.0235779)
        Viscous  : (3.07006e-07 -1.06622e-05 0.000179539)
    writing force and moment files.

Time = 15

smoothSolver:  Solving for Ux, Initial residual = 0.000488822, Final residual = 1.09127e-05, No Iterations 2
smoothSolver:  Solving for Uy, Initial residual = 0.0057015, Final residual = 0.000195544, No Iterations 2
smoothSolver:  Solving for Uz, Initial residual = 0.045463, Final residual = 0.00177789, No Iterations 2
GAMG:  Solving for p, Initial residual = 0.0373337, Final residual = 0.00240109, No Iterations 2
time step continuity errors : sum local = 3.66099e-05, global = 4.75069e-06, cumulative = 2.49728e-05
smoothSolver:  Solving for omega, Initial residual = 0.000274384, Final residual = 1.03422e-05, No Iterations 1
smoothSolver:  Solving for k, Initial residual = 0.0154269, Final residual = 0.00050396, No Iterations 1
ExecutionTime = 10.27 s  ClockTime = 10 s

forces forcesFish write:
    Sum of forces
        Total    : (0.507691 0.080507 0.00398385)
        Pressure : (0.228196 0.0802117 0.00397017)
        Viscous  : (0.279495 0.000295358 1.36714e-05)
    Sum of moments
        Total    : (2.99783e-05 0.000778176 0.0260174)
        Pressure : (2.94855e-05 0.000787482 0.0258218)
        Viscous  : (4.92789e-07 -9.3063e-06 0.000195578)
    writing force and moment files.

Time = 16

smoothSolver:  Solving for Ux, Initial residual = 0.000441883, Final residual = 9.89095e-06, No Iterations 2
smoothSolver:  Solving for Uy, Initial residual = 0.00587385, Final residual = 0.000200746, No Iterations 2
smoothSolver:  Solving for Uz, Initial residual = 0.0459664, Final residual = 0.00181881, No Iterations 2
GAMG:  Solving for p, Initial residual = 0.0387779, Final residual = 0.00245047, No Iterations 2
time step continuity errors : sum local = 3.53194e-05, global = 3.9996e-06, cumulative = 2.89724e-05
smoothSolver:  Solving for omega, Initial residual = 0.000240619, Final residual = 9.17436e-06, No Iterations 1
smoothSolver:  Solving for k, Initial residual = 0.0136298, Final residual = 0.000447156, No Iterations 1
ExecutionTime = 10.84 s  ClockTime = 11 s

forces forcesFish write:
    Sum of forces
        Total    : (0.523797 0.0742629 0.000427602)
        Pressure : (0.244634 0.0739103 0.000416723)
        Viscous  : (0.279163 0.000352644 1.08788e-05)
    Sum of moments
        Total    : (1.6253e-05 0.00172108 0.0250525)
        Pressure : (1.56606e-05 0.0017298 0.024846)
        Viscous  : (5.92396e-07 -8.71297e-06 0.000206554)
    writing force and moment files.

Time = 17

smoothSolver:  Solving for Ux, Initial residual = 0.000401172, Final residual = 8.77461e-06, No Iterations 2
smoothSolver:  Solving for Uy, Initial residual = 0.00577992, Final residual = 0.000185071, No Iterations 2
smoothSolver:  Solving for Uz, Initial residual = 0.0408812, Final residual = 0.00149108, No Iterations 2
GAMG:  Solving for p, Initial residual = 0.0390375, Final residual = 0.00245547, No Iterations 2
time step continuity errors : sum local = 3.4787e-05, global = 2.72404e-06, cumulative = 3.16964e-05
smoothSolver:  Solving for omega, Initial residual = 0.000211432, Final residual = 8.13734e-06, No Iterations 1
smoothSolver:  Solving for k, Initial residual = 0.0120961, Final residual = 0.000398251, No Iterations 1
ExecutionTime = 11.41 s  ClockTime = 11 s

forces forcesFish write:
    Sum of forces
        Total    : (0.522831 0.0635942 -0.00376734)
        Pressure : (0.244106 0.0632033 -0.00377596)
        Viscous  : (0.278725 0.000390896 8.61336e-06)
    Sum of moments
        Total    : (1.18483e-05 0.00270635 0.022057)
        Pressure : (1.11966e-05 0.0027143 0.0218437)
        Viscous  : (6.51715e-07 -7.94738e-06 0.000213335)
    writing force and moment files.

Time = 18

smoothSolver:  Solving for Ux, Initial residual = 0.000366077, Final residual = 7.7441e-06, No Iterations 2
smoothSolver:  Solving for Uy, Initial residual = 0.00543147, Final residual = 0.000154509, No Iterations 2
smoothSolver:  Solving for Uz, Initial residual = 0.0339089, Final residual = 0.00104426, No Iterations 2
GAMG:  Solving for p, Initial residual = 0.0379054, Final residual = 0.00228905, No Iterations 2
time step continuity errors : sum local = 3.28055e-05, global = 1.27201e-06, cumulative = 3.29685e-05
smoothSolver:  Solving for omega, Initial residual = 0.000186061, Final residual = 7.21096e-06, No Iterations 1
smoothSolver:  Solving for k, Initial residual = 0.01077, Final residual = 0.00035566, No Iterations 1
ExecutionTime = 11.95 s  ClockTime = 12 s

forces forcesFish write:
    Sum of forces
        Total    : (0.513081 0.051661 -0.00808148)
        Pressure : (0.234855 0.0512413 -0.00808463)
        Viscous  : (0.278226 0.000419645 3.14894e-06)
    Sum of moments
        Total    : (1.55592e-05 0.00361752 0.0181714)
        Pressure : (1.48365e-05 0.00362312 0.0179524)
        Viscous  : (7.22708e-07 -5.60059e-06 0.000218985)
    writing force and moment files.

Time = 19

smoothSolver:  Solving for Ux, Initial residual = 0.000336392, Final residual = 3.34211e-05, No Iterations 1
smoothSolver:  Solving for Uy, Initial residual = 0.00499614, Final residual = 0.000117456, No Iterations 2
smoothSolver:  Solving for Uz, Initial residual = 0.0282044, Final residual = 0.000676072, No Iterations 2
GAMG:  Solving for p, Initial residual = 0.0349182, Final residual = 0.00199898, No Iterations 2
time step continuity errors : sum local = 2.95473e-05, global = -6.50354e-08, cumulative = 3.29034e-05
smoothSolver:  Solving for omega, Initial residual = 0.000163897, Final residual = 6.38853e-06, No Iterations 1
smoothSolver:  Solving for k, Initial residual = 0.00961994, Final residual = 0.000318479, No Iterations 1
ExecutionTime = 12.5 s  ClockTime = 12 s

forces forcesFish write:
    Sum of forces
        Total    : (0.501361 0.041381 -0.0118955)
        Pressure : (0.223535 0.040937 -0.0118965)
        Viscous  : (0.277826 0.000443969 9.92823e-07)
    Sum of moments
        Total    : (2.61693e-05 0.0043381 0.014462)
        Pressure : (2.54538e-05 0.00434248 0.0142369)
        Viscous  : (7.1557e-07 -4.3824e-06 0.000225086)
    writing force and moment files.

Time = 20

smoothSolver:  Solving for Ux, Initial residual = 0.000313551, Final residual = 3.07192e-05, No Iterations 1
smoothSolver:  Solving for Uy, Initial residual = 0.00465485, Final residual = 9.73256e-05, No Iterations 2
smoothSolver:  Solving for Uz, Initial residual = 0.0258187, Final residual = 0.000616469, No Iterations 2
GAMG:  Solving for p, Initial residual = 0.0307112, Final residual = 0.00170922, No Iterations 2
time step continuity errors : sum local = 2.62505e-05, global = -1.25567e-06, cumulative = 3.16477e-05
smoothSolver:  Solving for omega, Initial residual = 0.00014452, Final residual = 5.65968e-06, No Iterations 1
smoothSolver:  Solving for k, Initial residual = 0.00861575, Final residual = 0.000285813, No Iterations 1
ExecutionTime = 13.04 s  ClockTime = 13 s

forces forcesFish write:
    Sum of forces
        Total    : (0.492256 0.0344839 -0.0146875)
        Pressure : (0.214859 0.0340147 -0.0146896)
        Viscous  : (0.277396 0.000469236 2.08342e-06)
    Sum of moments
        Total    : (4.18064e-05 0.00478724 0.0116226)
        Pressure : (4.11598e-05 0.00479168 0.0113904)
        Viscous  : (6.46636e-07 -4.43316e-06 0.000232259)
    writing force and moment files.

Time = 21

smoothSolver:  Solving for Ux, Initial residual = 0.000284113, Final residual = 2.79532e-05, No Iterations 1
smoothSolver:  Solving for Uy, Initial residual = 0.00447455, Final residual = 9.67042e-05, No Iterations 2
smoothSolver:  Solving for Uz, Initial residual = 0.0244665, Final residual = 0.000662783, No Iterations 2
GAMG:  Solving for p, Initial residual = 0.027187, Final residual = 0.00150935, No Iterations 2
time step continuity errors : sum local = 2.40039e-05, global = -2.32706e-06, cumulative = 2.93207e-05
smoothSolver:  Solving for omega, Initial residual = 0.000127521, Final residual = 5.01737e-06, No Iterations 1
smoothSolver:  Solving for k, Initial residual = 0.00773335, Final residual = 0.00025695, No Iterations 1
ExecutionTime = 13.62 s  ClockTime = 13 s

forces forcesFish write:
    Sum of forces
        Total    : (0.487693 0.0313955 -0.0161662)
        Pressure : (0.210757 0.0308996 -0.0161684)
        Viscous  : (0.276935 0.000495851 2.21339e-06)
    Sum of moments
        Total    : (5.93542e-05 0.00493541 0.00993629)
        Pressure : (5.87606e-05 0.00493957 0.00969641)
        Viscous  : (5.93567e-07 -4.1686e-06 0.000239887)
    writing force and moment files.

Time = 22

smoothSolver:  Solving for Ux, Initial residual = 0.000251685, Final residual = 4.99836e-06, No Iterations 2
smoothSolver:  Solving for Uy, Initial residual = 0.00430944, Final residual = 9.79204e-05, No Iterations 2
smoothSolver:  Solving for Uz, Initial residual = 0.0228775, Final residual = 0.000671253, No Iterations 2
GAMG:  Solving for p, Initial residual = 0.0252496, Final residual = 0.00142405, No Iterations 2
time step continuity errors : sum local = 2.32179e-05, global = -3.2574e-06, cumulative = 2.60633e-05
smoothSolver:  Solving for omega, Initial residual = 0.000112543, Final residual = 4.45277e-06, No Iterations 1
smoothSolver:  Solving for k, Initial residual = 0.00695111, Final residual = 0.000231233, No Iterations 1
ExecutionTime = 14.18 s  ClockTime = 14 s

forces forcesFish write:
    Sum of forces
        Total    : (0.48731 0.0313393 -0.0163389)
        Pressure : (0.210971 0.0308132 -0.0163392)
        Viscous  : (0.276338 0.000526106 2.75604e-07)
    Sum of moments
        Total    : (7.58014e-05 0.00480687 0.00927937)
        Pressure : (7.5218e-05 0.00481009 0.00903145)
        Viscous  : (5.83372e-07 -3.21724e-06 0.000247923)
    writing force and moment files.

Time = 23

smoothSolver:  Solving for Ux, Initial residual = 0.000215898, Final residual = 4.3778e-06, No Iterations 2
smoothSolver:  Solving for Uy, Initial residual = 0.00414604, Final residual = 9.3666e-05, No Iterations 2
smoothSolver:  Solving for Uz, Initial residual = 0.0209986, Final residual = 0.000612675, No Iterations 2
GAMG:  Solving for p, Initial residual = 0.0237933, Final residual = 0.00139103, No Iterations 2
time step continuity errors : sum local = 2.29898e-05, global = -3.9217e-06, cumulative = 2.21416e-05
smoothSolver:  Solving for omega, Initial residual = 9.92973e-05, Final residual = 3.9567e-06, No Iterations 1
smoothSolver:  Solving for k, Initial residual = 0.00625401, Final residual = 0.000208233, No Iterations 1
ExecutionTime = 14.75 s  ClockTime = 15 s

forces forcesFish write:
    Sum of forces
        Total    : (0.489764 0.0332674 -0.015418)
        Pressure : (0.214045 0.0327083 -0.0154197)
        Viscous  : (0.275719 0.000559162 1.68838e-06)
    Sum of moments
        Total    : (8.99773e-05 0.00445832 0.00938633)
        Pressure : (8.94437e-05 0.00446208 0.00912978)
        Viscous  : (5.33516e-07 -3.76282e-06 0.000256551)
    writing force and moment files.

Time = 24

smoothSolver:  Solving for Ux, Initial residual = 0.000188479, Final residual = 1.87304e-05, No Iterations 1
smoothSolver:  Solving for Uy, Initial residual = 0.00403217, Final residual = 8.53442e-05, No Iterations 2
smoothSolver:  Solving for Uz, Initial residual = 0.0191601, Final residual = 0.00050591, No Iterations 2
GAMG:  Solving for p, Initial residual = 0.022171, Final residual = 0.0013169, No Iterations 2
time step continuity errors : sum local = 2.18402e-05, global = -4.23207e-06, cumulative = 1.79095e-05
smoothSolver:  Solving for omega, Initial residual = 8.7542e-05, Final residual = 3.51992e-06, No Iterations 1
smoothSolver:  Solving for k, Initial residual = 0.0056307, Final residual = 0.000187622, No Iterations 1
ExecutionTime = 15.33 s  ClockTime = 15 s

forces forcesFish write:
    Sum of forces
        Total    : (0.493558 0.0362772 -0.0136535)
        Pressure : (0.218393 0.0356832 -0.0136548)
        Viscous  : (0.275166 0.000593975 1.26026e-06)
    Sum of moments
        Total    : (0.000101334 0.00395336 0.00999598)
        Pressure : (0.000100799 0.0039571 0.00972994)
        Viscous  : (5.35152e-07 -3.73116e-06 0.000266048)
    writing force and moment files.

Time = 25

smoothSolver:  Solving for Ux, Initial residual = 0.000173889, Final residual = 1.66272e-05, No Iterations 1
smoothSolver:  Solving for Uy, Initial residual = 0.00392191, Final residual = 7.49696e-05, No Iterations 2
smoothSolver:  Solving for Uz, Initial residual = 0.0172626, Final residual = 0.000373998, No Iterations 2
GAMG:  Solving for p, Initial residual = 0.0209366, Final residual = 0.00122046, No Iterations 2
time step continuity errors : sum local = 2.01441e-05, global = -4.25676e-06, cumulative = 1.36528e-05
smoothSolver:  Solving for omega, Initial residual = 7.70939e-05, Final residual = 3.134e-06, No Iterations 1
smoothSolver:  Solving for k, Initial residual = 0.00507054, Final residual = 0.000169072, No Iterations 1
ExecutionTime = 15.89 s  ClockTime = 16 s

forces forcesFish write:
    Sum of forces
        Total    : (0.496935 0.0393761 -0.0113646)
        Pressure : (0.222351 0.0387462 -0.0113671)
        Viscous  : (0.274584 0.00062988 2.43944e-06)
    Sum of moments
        Total    : (0.000108898 0.00337115 0.0107987)
        Pressure : (0.000108373 0.00337559 0.0105228)
        Viscous  : (5.24876e-07 -4.44131e-06 0.000275855)
    writing force and moment files.

Time = 26

smoothSolver:  Solving for Ux, Initial residual = 0.000163538, Final residual = 1.47862e-05, No Iterations 1
smoothSolver:  Solving for Uy, Initial residual = 0.00380906, Final residual = 0.000370187, No Iterations 1
smoothSolver:  Solving for Uz, Initial residual = 0.015845, Final residual = 0.00151413, No Iterations 1
GAMG:  Solving for p, Initial residual = 0.0197637, Final residual = 0.0010983, No Iterations 2
time step continuity errors : sum local = 1.79481e-05, global = -4.03155e-06, cumulative = 9.62121e-06
smoothSolver:  Solving for omega, Initial residual = 6.7769e-05, Final residual = 2.7905e-06, No Iterations 1
smoothSolver:  Solving for k, Initial residual = 0.00456441, Final residual = 0.00015231, No Iterations 1
ExecutionTime = 16.41 s  ClockTime = 16 s

forces forcesFish write:
    Sum of forces
        Total    : (0.498585 0.0416828 -0.00902667)
        Pressure : (0.22461 0.0410222 -0.00903191)
        Viscous  : (0.273976 0.000660565 5.23654e-06)
    Sum of moments
        Total    : (0.00011315 0.00282473 0.0114832)
        Pressure : (0.000112653 0.00283054 0.0111996)
        Viscous  : (4.97762e-07 -5.80222e-06 0.000283656)
    writing force and moment files.

Time = 27

smoothSolver:  Solving for Ux, Initial residual = 0.000153826, Final residual = 1.31995e-05, No Iterations 1
smoothSolver:  Solving for Uy, Initial residual = 0.00370449, Final residual = 0.000354837, No Iterations 1
smoothSolver:  Solving for Uz, Initial residual = 0.0152812, Final residual = 0.0014232, No Iterations 1
GAMG:  Solving for p, Initial residual = 0.0186998, Final residual = 0.000986534, No Iterations 2
time step continuity errors : sum local = 1.59321e-05, global = -3.61004e-06, cumulative = 6.01117e-06
smoothSolver:  Solving for omega, Initial residual = 5.94402e-05, Final residual = 2.48489e-06, No Iterations 1
smoothSolver:  Solving for k, Initial residual = 0.00410377, Final residual = 0.000137077, No Iterations 1
ExecutionTime = 16.94 s  ClockTime = 17 s

forces forcesFish write:
    Sum of forces
        Total    : (0.49823 0.0428843 -0.00698499)
        Pressure : (0.224882 0.0421939 -0.00699291)
        Viscous  : (0.273348 0.000690476 7.92872e-06)
    Sum of moments
        Total    : (0.000114397 0.00239079 0.0119272)
        Pressure : (0.000113919 0.00239794 0.0116359)
        Viscous  : (4.77742e-07 -7.14814e-06 0.000291268)
    writing force and moment files.

Time = 28

smoothSolver:  Solving for Ux, Initial residual = 0.000145282, Final residual = 1.19654e-05, No Iterations 1
smoothSolver:  Solving for Uy, Initial residual = 0.00351376, Final residual = 0.00033609, No Iterations 1
smoothSolver:  Solving for Uz, Initial residual = 0.0144848, Final residual = 0.00137345, No Iterations 1
GAMG:  Solving for p, Initial residual = 0.0174302, Final residual = 0.000899466, No Iterations 2
time step continuity errors : sum local = 1.43567e-05, global = -3.0362e-06, cumulative = 2.97496e-06
smoothSolver:  Solving for omega, Initial residual = 5.19876e-05, Final residual = 2.21207e-06, No Iterations 1
smoothSolver:  Solving for k, Initial residual = 0.0036847, Final residual = 0.000123257, No Iterations 1
ExecutionTime = 17.47 s  ClockTime = 17 s

forces forcesFish write:
    Sum of forces
        Total    : (0.496059 0.0429578 -0.00548541)
        Pressure : (0.223352 0.0422389 -0.00549644)
        Viscous  : (0.272707 0.000718907 1.10279e-05)
    Sum of moments
        Total    : (0.000113517 0.0021196 0.0120886)
        Pressure : (0.000113069 0.00212823 0.0117901)
        Viscous  : (4.47991e-07 -8.63097e-06 0.000298524)
    writing force and moment files.

Time = 29

smoothSolver:  Solving for Ux, Initial residual = 0.000137332, Final residual = 1.09366e-05, No Iterations 1
smoothSolver:  Solving for Uy, Initial residual = 0.00328175, Final residual = 0.000309006, No Iterations 1
smoothSolver:  Solving for Uz, Initial residual = 0.0133802, Final residual = 0.0012808, No Iterations 1
GAMG:  Solving for p, Initial residual = 0.016416, Final residual = 0.00083703, No Iterations 2
time step continuity errors : sum local = 1.32298e-05, global = -2.37256e-06, cumulative = 6.02406e-07
smoothSolver:  Solving for omega, Initial residual = 4.53157e-05, Final residual = 1.96827e-06, No Iterations 1
smoothSolver:  Solving for k, Initial residual = 0.00330225, Final residual = 0.000110693, No Iterations 1
ExecutionTime = 18.03 s  ClockTime = 18 s

forces forcesFish write:
    Sum of forces
        Total    : (0.492554 0.042088 -0.00463781)
        Pressure : (0.220493 0.0413418 -0.00465106)
        Viscous  : (0.272061 0.000746169 1.32519e-05)
    Sum of moments
        Total    : (0.000111517 0.0020278 0.0119893)
        Pressure : (0.000111089 0.00203751 0.0116837)
        Viscous  : (4.28392e-07 -9.70284e-06 0.000305612)
    writing force and moment files.

Time = 30

smoothSolver:  Solving for Ux, Initial residual = 0.00012854, Final residual = 1.00212e-05, No Iterations 1
smoothSolver:  Solving for Uy, Initial residual = 0.00304405, Final residual = 0.000276409, No Iterations 1
smoothSolver:  Solving for Uz, Initial residual = 0.0122472, Final residual = 0.00114363, No Iterations 1
GAMG:  Solving for p, Initial residual = 0.0154352, Final residual = 0.000780615, No Iterations 2
time step continuity errors : sum local = 1.22549e-05, global = -1.67091e-06, cumulative = -1.0685e-06
smoothSolver:  Solving for omega, Initial residual = 3.93474e-05, Final residual = 1.75012e-06, No Iterations 1
smoothSolver:  Solving for k, Initial residual = 0.0029524, Final residual = 9.92579e-05, No Iterations 1
ExecutionTime = 18.59 s  ClockTime = 18 s

forces forcesFish write:
    Sum of forces
        Total    : (0.488274 0.0405439 -0.00445269)
        Pressure : (0.216861 0.0397722 -0.00446753)
        Viscous  : (0.271413 0.000771703 1.48382e-05)
    Sum of moments
        Total    : (0.00010929 0.00210911 0.0116841)
        Pressure : (0.000108878 0.00211956 0.0113718)
        Viscous  : (4.12124e-07 -1.04548e-05 0.000312291)
    writing force and moment files.

Time = 31

smoothSolver:  Solving for Ux, Initial residual = 0.000119582, Final residual = 9.28079e-06, No Iterations 1
smoothSolver:  Solving for Uy, Initial residual = 0.00283009, Final residual = 0.000244056, No Iterations 1
smoothSolver:  Solving for Uz, Initial residual = 0.0111949, Final residual = 0.000974775, No Iterations 1
GAMG:  Solving for p, Initial residual = 0.0142914, Final residual = 0.000712806, No Iterations 2
time step continuity errors : sum local = 1.11506e-05, global = -8.72622e-07, cumulative = -1.94113e-06
smoothSolver:  Solving for omega, Initial residual = 3.40202e-05, Final residual = 1.55528e-06, No Iterations 1
smoothSolver:  Solving for k, Initial residual = 0.00263136, Final residual = 8.88275e-05, No Iterations 1
ExecutionTime = 19.14 s  ClockTime = 19 s

forces forcesFish write:
    Sum of forces
        Total    : (0.483766 0.0386157 -0.00486883)
        Pressure : (0.212996 0.0378197 -0.00488426)
        Viscous  : (0.270771 0.000795947 1.54327e-05)
    Sum of moments
        Total    : (0.000107493 0.00233975 0.0112429)
        Pressure : (0.000107086 0.0023505 0.0109241)
        Viscous  : (4.06156e-07 -1.07446e-05 0.000318801)
    writing force and moment files.

Time = 32

smoothSolver:  Solving for Ux, Initial residual = 0.000111541, Final residual = 8.636e-06, No Iterations 1
smoothSolver:  Solving for Uy, Initial residual = 0.00263967, Final residual = 0.000212813, No Iterations 1
smoothSolver:  Solving for Uz, Initial residual = 0.0101808, Final residual = 0.000808311, No Iterations 1
GAMG:  Solving for p, Initial residual = 0.0131578, Final residual = 0.00065048, No Iterations 2
time step continuity errors : sum local = 1.0165e-05, global = -1.01228e-07, cumulative = -2.04235e-06
smoothSolver:  Solving for omega, Initial residual = 2.92825e-05, Final residual = 1.3814e-06, No Iterations 1
smoothSolver:  Solving for k, Initial residual = 0.00233667, Final residual = 7.9317e-05, No Iterations 1
ExecutionTime = 19.66 s  ClockTime = 19 s

forces forcesFish write:
    Sum of forces
        Total    : (0.479486 0.0365956 -0.00577161)
        Pressure : (0.209352 0.0357774 -0.00578748)
        Viscous  : (0.270134 0.000818208 1.58667e-05)
    Sum of moments
        Total    : (0.000106745 0.00268339 0.0107426)
        Pressure : (0.000106344 0.00269428 0.0104177)
        Viscous  : (4.00508e-07 -1.0897e-05 0.000324843)
    writing force and moment files.

Time = 33

smoothSolver:  Solving for Ux, Initial residual = 0.000104375, Final residual = 8.07607e-06, No Iterations 1
smoothSolver:  Solving for Uy, Initial residual = 0.00250377, Final residual = 0.000187276, No Iterations 1
smoothSolver:  Solving for Uz, Initial residual = 0.00934072, Final residual = 0.000697137, No Iterations 1
GAMG:  Solving for p, Initial residual = 0.0122159, Final residual = 0.000596495, No Iterations 2
time step continuity errors : sum local = 9.32986e-06, global = 5.28448e-07, cumulative = -1.51391e-06
smoothSolver:  Solving for omega, Initial residual = 2.50871e-05, Final residual = 1.22704e-06, No Iterations 1
smoothSolver:  Solving for k, Initial residual = 0.00206683, Final residual = 7.0673e-05, No Iterations 1
ExecutionTime = 20.21 s  ClockTime = 20 s

forces forcesFish write:
    Sum of forces
        Total    : (0.475748 0.0347304 -0.00699176)
        Pressure : (0.206239 0.0338911 -0.00700729)
        Viscous  : (0.269509 0.000839376 1.55294e-05)
    Sum of moments
        Total    : (0.000107356 0.00309109 0.0102528)
        Pressure : (0.000106951 0.00310178 0.00992208)
        Viscous  : (4.04764e-07 -1.06864e-05 0.000330766)
    writing force and moment files.

Time = 34

smoothSolver:  Solving for Ux, Initial residual = 9.84544e-05, Final residual = 7.59241e-06, No Iterations 1
smoothSolver:  Solving for Uy, Initial residual = 0.00242271, Final residual = 0.000171596, No Iterations 1
smoothSolver:  Solving for Uz, Initial residual = 0.00868039, Final residual = 0.000642437, No Iterations 1
GAMG:  Solving for p, Initial residual = 0.0113152, Final residual = 0.000551276, No Iterations 2
time step continuity errors : sum local = 8.64081e-06, global = 1.07134e-06, cumulative = -4.42567e-07
smoothSolver:  Solving for omega, Initial residual = 2.13923e-05, Final residual = 1.0907e-06, No Iterations 1
smoothSolver:  Solving for k, Initial residual = 0.00182012, Final residual = 6.28327e-05, No Iterations 1
ExecutionTime = 20.75 s  ClockTime = 21 s

forces forcesFish write:
    Sum of forces
        Total    : (0.47268 0.0331839 -0.0083427)
        Pressure : (0.203786 0.0323251 -0.00835816)
        Viscous  : (0.268894 0.000858748 1.54626e-05)
    Sum of moments
        Total    : (0.00010938 0.00351237 0.00982406)
        Pressure : (0.000108976 0.00352293 0.00948777)
        Viscous  : (4.04489e-07 -1.05555e-05 0.000336287)
    writing force and moment files.

Time = 35

smoothSolver:  Solving for Ux, Initial residual = 9.33792e-05, Final residual = 7.14937e-06, No Iterations 1
smoothSolver:  Solving for Uy, Initial residual = 0.00235505, Final residual = 0.000162313, No Iterations 1
smoothSolver:  Solving for Uz, Initial residual = 0.00814071, Final residual = 0.000600543, No Iterations 1
GAMG:  Solving for p, Initial residual = 0.0104614, Final residual = 0.000504412, No Iterations 2
time step continuity errors : sum local = 7.92434e-06, global = 1.44404e-06, cumulative = 1.00147e-06
smoothSolver:  Solving for omega, Initial residual = 1.81572e-05, Final residual = 9.70551e-07, No Iterations 1
smoothSolver:  Solving for k, Initial residual = 0.00159515, Final residual = 5.57407e-05, No Iterations 1
ExecutionTime = 21.27 s  ClockTime = 21 s

forces forcesFish write:
    Sum of forces
        Total    : (0.470277 0.0320229 -0.00965441)
        Pressure : (0.201986 0.0311458 -0.00966935)
        Viscous  : (0.268292 0.000877084 1.49424e-05)
    Sum of moments
        Total    : (0.000112538 0.00390305 0.00948285)
        Pressure : (0.000112125 0.00391328 0.00914111)
        Viscous  : (4.1323e-07 -1.02222e-05 0.000341742)
    writing force and moment files.

Time = 36

smoothSolver:  Solving for Ux, Initial residual = 8.71284e-05, Final residual = 6.67938e-06, No Iterations 1
smoothSolver:  Solving for Uy, Initial residual = 0.00228561, Final residual = 0.000157898, No Iterations 1
smoothSolver:  Solving for Uz, Initial residual = 0.00755158, Final residual = 0.000553072, No Iterations 1
GAMG:  Solving for p, Initial residual = 0.00975861, Final residual = 0.000452229, No Iterations 2
time step continuity errors : sum local = 7.11797e-06, global = 1.61641e-06, cumulative = 2.61788e-06
smoothSolver:  Solving for omega, Initial residual = 1.53436e-05, Final residual = 8.64737e-07, No Iterations 1
smoothSolver:  Solving for k, Initial residual = 0.00139064, Final residual = 4.93411e-05, No Iterations 1
ExecutionTime = 21.8 s  ClockTime = 22 s

forces forcesFish write:
    Sum of forces
        Total    : (0.468433 0.031239 -0.0107998)
        Pressure : (0.200731 0.0303451 -0.0108141)
        Viscous  : (0.267701 0.000893877 1.42472e-05)
    Sum of moments
        Total    : (0.000116433 0.00423171 0.00923526)
        Pressure : (0.000116006 0.00424153 0.00888835)
        Viscous  : (4.26624e-07 -9.82242e-06 0.000346911)
    writing force and moment files.

Time = 37

smoothSolver:  Solving for Ux, Initial residual = 7.89496e-05, Final residual = 6.14887e-06, No Iterations 1
smoothSolver:  Solving for Uy, Initial residual = 0.00220915, Final residual = 0.000154634, No Iterations 1
smoothSolver:  Solving for Uz, Initial residual = 0.00696623, Final residual = 0.000501918, No Iterations 1
GAMG:  Solving for p, Initial residual = 0.00918467, Final residual = 0.000406286, No Iterations 2
time step continuity errors : sum local = 6.40255e-06, global = 1.62602e-06, cumulative = 4.24391e-06
smoothSolver:  Solving for omega, Initial residual = 1.29128e-05, Final residual = 7.72004e-07, No Iterations 1
smoothSolver:  Solving for k, Initial residual = 0.00120544, Final residual = 4.35837e-05, No Iterations 1
ExecutionTime = 22.33 s  ClockTime = 22 s

forces forcesFish write:
    Sum of forces
        Total    : (0.467005 0.0307834 -0.0116889)
        Pressure : (0.199881 0.0298738 -0.0117029)
        Viscous  : (0.267123 0.000909586 1.40359e-05)
    Sum of moments
        Total    : (0.000120574 0.00447685 0.00907506)
        Pressure : (0.00012014 0.00448647 0.00872309)
        Viscous  : (4.33401e-07 -9.61968e-06 0.000351972)
    writing force and moment files.

Time = 38

smoothSolver:  Solving for Ux, Initial residual = 7.05007e-05, Final residual = 5.593e-06, No Iterations 1
smoothSolver:  Solving for Uy, Initial residual = 0.00214205, Final residual = 0.000150386, No Iterations 1
smoothSolver:  Solving for Uz, Initial residual = 0.00642843, Final residual = 0.000444727, No Iterations 1
GAMG:  Solving for p, Initial residual = 0.00861596, Final residual = 0.00037811, No Iterations 2
time step continuity errors : sum local = 5.96023e-06, global = 1.54502e-06, cumulative = 5.78892e-06
smoothSolver:  Solving for omega, Initial residual = 1.08285e-05, Final residual = 6.9043e-07, No Iterations 1
smoothSolver:  Solving for k, Initial residual = 0.001039, Final residual = 3.84396e-05, No Iterations 1
ExecutionTime = 22.88 s  ClockTime = 23 s

forces forcesFish write:
    Sum of forces
        Total    : (0.465853 0.030584 -0.0122709)
        Pressure : (0.199296 0.0296601 -0.012284)
        Viscous  : (0.266558 0.000923922 1.3163e-05)
    Sum of moments
        Total    : (0.000124527 0.00462842 0.00898784)
        Pressure : (0.000124074 0.0046376 0.00863107)
        Viscous  : (4.53314e-07 -9.1814e-06 0.000356778)
    writing force and moment files.

Time = 39

smoothSolver:  Solving for Ux, Initial residual = 6.4261e-05, Final residual = 5.10934e-06, No Iterations 1
smoothSolver:  Solving for Uy, Initial residual = 0.0020838, Final residual = 0.00014534, No Iterations 1
smoothSolver:  Solving for Uz, Initial residual = 0.00592494, Final residual = 0.00038731, No Iterations 1
GAMG:  Solving for p, Initial residual = 0.00803221, Final residual = 0.000356365, No Iterations 2
time step continuity errors : sum local = 5.6134e-06, global = 1.40107e-06, cumulative = 7.18999e-06
smoothSolver:  Solving for omega, Initial residual = 9.05293e-06, Final residual = 6.18912e-07, No Iterations 1
smoothSolver:  Solving for k, Initial residual = 0.000890395, Final residual = 3.3866e-05, No Iterations 1
ExecutionTime = 23.42 s  ClockTime = 23 s

forces forcesFish write:
    Sum of forces
        Total    : (0.464869 0.0305527 -0.0125375)
        Pressure : (0.198865 0.0296157 -0.01255)
        Viscous  : (0.266005 0.000936917 1.25243e-05)
    Sum of moments
        Total    : (0.000127791 0.0046873 0.00895334)
        Pressure : (0.000127321 0.00469617 0.00859204)
        Viscous  : (4.69496e-07 -8.86181e-06 0.000361296)
    writing force and moment files.

Time = 40

smoothSolver:  Solving for Ux, Initial residual = 6.1006e-05, Final residual = 4.74824e-06, No Iterations 1
smoothSolver:  Solving for Uy, Initial residual = 0.0020432, Final residual = 0.00014059, No Iterations 1
smoothSolver:  Solving for Uz, Initial residual = 0.00543407, Final residual = 0.000335699, No Iterations 1
GAMG:  Solving for p, Initial residual = 0.00748693, Final residual = 0.000330829, No Iterations 2
time step continuity errors : sum local = 5.20333e-06, global = 1.20122e-06, cumulative = 8.39122e-06
smoothSolver:  Solving for omega, Initial residual = 7.55181e-06, Final residual = 5.563e-07, No Iterations 1
smoothSolver:  Solving for k, Initial residual = 0.000758681, Final residual = 2.98204e-05, No Iterations 1
ExecutionTime = 23.96 s  ClockTime = 24 s

forces forcesFish write:
    Sum of forces
        Total    : (0.463966 0.0306018 -0.0125348)
        Pressure : (0.198501 0.0296532 -0.0125474)
        Viscous  : (0.265464 0.000948589 1.25783e-05)
    Sum of moments
        Total    : (0.000130102 0.00466968 0.0089497)
        Pressure : (0.00012963 0.00467853 0.00858422)
        Viscous  : (4.72337e-07 -8.84988e-06 0.000365479)
    writing force and moment files.

Time = 41

smoothSolver:  Solving for Ux, Initial residual = 5.84103e-05, Final residual = 4.45073e-06, No Iterations 1
smoothSolver:  Solving for Uy, Initial residual = 0.00200946, Final residual = 0.000136241, No Iterations 1
smoothSolver:  Solving for Uz, Initial residual = 0.00498573, Final residual = 0.000294097, No Iterations 1
GAMG:  Solving for p, Initial residual = 0.00698191, Final residual = 0.000302685, No Iterations 2
time step continuity errors : sum local = 4.75121e-06, global = 9.44711e-07, cumulative = 9.33593e-06
smoothSolver:  Solving for omega, Initial residual = 6.29271e-06, Final residual = 5.01264e-07, No Iterations 1
smoothSolver:  Solving for k, Initial residual = 0.000642845, Final residual = 2.62589e-05, No Iterations 1
ExecutionTime = 24.51 s  ClockTime = 24 s

forces forcesFish write:
    Sum of forces
        Total    : (0.463115 0.0306564 -0.0123392)
        Pressure : (0.198177 0.0296976 -0.0123508)
        Viscous  : (0.264938 0.00095876 1.16144e-05)
    Sum of moments
        Total    : (0.00013135 0.00459898 0.00895667)
        Pressure : (0.000130857 0.00460744 0.00858744)
        Viscous  : (4.92279e-07 -8.45985e-06 0.00036923)
    writing force and moment files.

Time = 42

smoothSolver:  Solving for Ux, Initial residual = 5.62827e-05, Final residual = 4.20677e-06, No Iterations 1
smoothSolver:  Solving for Uy, Initial residual = 0.00198516, Final residual = 0.000132341, No Iterations 1
smoothSolver:  Solving for Uz, Initial residual = 0.00454601, Final residual = 0.00026002, No Iterations 1
GAMG:  Solving for p, Initial residual = 0.00648549, Final residual = 0.000278083, No Iterations 2
time step continuity errors : sum local = 4.35594e-06, global = 6.45101e-07, cumulative = 9.98103e-06
smoothSolver:  Solving for omega, Initial residual = 5.2444e-06, Final residual = 4.52817e-07, No Iterations 1
smoothSolver:  Solving for k, Initial residual = 0.000541798, Final residual = 2.31375e-05, No Iterations 1
ExecutionTime = 25.04 s  ClockTime = 25 s

forces forcesFish write:
    Sum of forces
        Total    : (0.462296 0.0306688 -0.012035)
        Pressure : (0.19787 0.0297008 -0.0120456)
        Viscous  : (0.264427 0.000968013 1.06341e-05)
    Sum of moments
        Total    : (0.00013158 0.00449974 0.00895979)
        Pressure : (0.000131071 0.00450783 0.00858706)
        Viscous  : (5.09001e-07 -8.08505e-06 0.000372738)
    writing force and moment files.

Time = 43

smoothSolver:  Solving for Ux, Initial residual = 5.46743e-05, Final residual = 4.01374e-06, No Iterations 1
smoothSolver:  Solving for Uy, Initial residual = 0.0019848, Final residual = 0.000129485, No Iterations 1
smoothSolver:  Solving for Uz, Initial residual = 0.0041542, Final residual = 0.000234287, No Iterations 1
GAMG:  Solving for p, Initial residual = 0.00600456, Final residual = 0.00025741, No Iterations 2
time step continuity errors : sum local = 4.02464e-06, global = 3.39285e-07, cumulative = 1.03203e-05
smoothSolver:  Solving for omega, Initial residual = 4.37703e-06, Final residual = 4.09986e-07, No Iterations 1
smoothSolver:  Solving for k, Initial residual = 0.000454296, Final residual = 2.04082e-05, No Iterations 1
ExecutionTime = 25.6 s  ClockTime = 25 s

forces forcesFish write:
    Sum of forces
        Total    : (0.461507 0.0306143 -0.0116969)
        Pressure : (0.197577 0.029639 -0.0117075)
        Viscous  : (0.26393 0.000975251 1.06121e-05)
    Sum of moments
        Total    : (0.000130967 0.00439317 0.00894947)
        Pressure : (0.000130459 0.00440128 0.00857397)
        Viscous  : (5.08625e-07 -8.11003e-06 0.000375493)
    writing force and moment files.

Time = 44

smoothSolver:  Solving for Ux, Initial residual = 5.29593e-05, Final residual = 3.84007e-06, No Iterations 1
smoothSolver:  Solving for Uy, Initial residual = 0.00198412, Final residual = 0.000127345, No Iterations 1
smoothSolver:  Solving for Uz, Initial residual = 0.00383846, Final residual = 0.000217236, No Iterations 1
GAMG:  Solving for p, Initial residual = 0.0055653, Final residual = 0.000235937, No Iterations 2
time step continuity errors : sum local = 3.68354e-06, global = 4.07698e-08, cumulative = 1.03611e-05
smoothSolver:  Solving for omega, Initial residual = 3.66419e-06, Final residual = 7.70131e-08, No Iterations 2
smoothSolver:  Solving for k, Initial residual = 0.0003793, Final residual = 1.80429e-05, No Iterations 1
ExecutionTime = 26.17 s  ClockTime = 26 s

forces forcesFish write:
    Sum of forces
        Total    : (0.460766 0.0304876 -0.0113787)
        Pressure : (0.197317 0.0295055 -0.0113883)
        Viscous  : (0.263449 0.000982131 9.56319e-06)
    Sum of moments
        Total    : (0.000129738 0.00429407 0.0089216)
        Pressure : (0.000129216 0.0043018 0.00854344)
        Viscous  : (5.21724e-07 -7.73183e-06 0.000378162)
    writing force and moment files.

Time = 45

smoothSolver:  Solving for Ux, Initial residual = 5.02878e-05, Final residual = 3.65617e-06, No Iterations 1
smoothSolver:  Solving for Uy, Initial residual = 0.00197234, Final residual = 0.000125676, No Iterations 1
smoothSolver:  Solving for Uz, Initial residual = 0.00357712, Final residual = 0.000203691, No Iterations 1
GAMG:  Solving for p, Initial residual = 0.00516281, Final residual = 0.000219005, No Iterations 2
time step continuity errors : sum local = 3.41587e-06, global = -1.83838e-07, cumulative = 1.01772e-05
smoothSolver:  Solving for omega, Initial residual = 3.02348e-06, Final residual = 6.92268e-08, No Iterations 2
smoothSolver:  Solving for k, Initial residual = 0.000315628, Final residual = 1.59948e-05, No Iterations 1
ExecutionTime = 26.71 s  ClockTime = 27 s

forces forcesFish write:
    Sum of forces
        Total    : (0.460084 0.030294 -0.0111125)
        Pressure : (0.1971 0.029307 -0.0111219)
        Viscous  : (0.262983 0.000987012 9.39952e-06)
    Sum of moments
        Total    : (0.000128094 0.00421092 0.00887465)
        Pressure : (0.000127573 0.00421862 0.00849463)
        Viscous  : (5.2088e-07 -7.70661e-06 0.000380023)
    writing force and moment files.

Time = 46

smoothSolver:  Solving for Ux, Initial residual = 4.67088e-05, Final residual = 3.45862e-06, No Iterations 1
smoothSolver:  Solving for Uy, Initial residual = 0.00194656, Final residual = 0.000123838, No Iterations 1
smoothSolver:  Solving for Uz, Initial residual = 0.00336789, Final residual = 0.000190823, No Iterations 1
GAMG:  Solving for p, Initial residual = 0.00479912, Final residual = 0.000209929, No Iterations 2
time step continuity errors : sum local = 3.27268e-06, global = -3.09002e-07, cumulative = 9.86824e-06
smoothSolver:  Solving for omega, Initial residual = 2.51041e-06, Final residual = 6.16179e-08, No Iterations 2
smoothSolver:  Solving for k, Initial residual = 0.000262013, Final residual = 1.422e-05, No Iterations 1
ExecutionTime = 27.27 s  ClockTime = 27 s

forces forcesFish write:
    Sum of forces
        Total    : (0.459478 0.0300488 -0.0109134)
        Pressure : (0.196943 0.0290572 -0.0109217)
        Viscous  : (0.262535 0.000991678 8.34867e-06)
    Sum of moments
        Total    : (0.000126231 0.00414747 0.008811)
        Pressure : (0.000125699 0.0041548 0.00842918)
        Viscous  : (5.32106e-07 -7.32256e-06 0.000381814)
    writing force and moment files.

Time = 47

smoothSolver:  Solving for Ux, Initial residual = 4.23093e-05, Final residual = 3.23773e-06, No Iterations 1
smoothSolver:  Solving for Uy, Initial residual = 0.00191266, Final residual = 0.000121784, No Iterations 1
smoothSolver:  Solving for Uz, Initial residual = 0.00316608, Final residual = 0.000177964, No Iterations 1
GAMG:  Solving for p, Initial residual = 0.00447545, Final residual = 0.000199507, No Iterations 2
time step continuity errors : sum local = 3.10984e-06, global = -3.54329e-07, cumulative = 9.51392e-06
smoothSolver:  Solving for omega, Initial residual = 2.09833e-06, Final residual = 5.48166e-08, No Iterations 2
smoothSolver:  Solving for k, Initial residual = 0.000217212, Final residual = 1.26825e-05, No Iterations 1
ExecutionTime = 27.82 s  ClockTime = 28 s

forces forcesFish write:
    Sum of forces
        Total    : (0.458939 0.0297723 -0.0107806)
        Pressure : (0.196837 0.0287778 -0.0107894)
        Viscous  : (0.262102 0.000994453 8.77147e-06)
    Sum of moments
        Total    : (0.000124284 0.00410282 0.00873462)
        Pressure : (0.000123764 0.00411034 0.00835179)
        Viscous  : (5.20728e-07 -7.51697e-06 0.000382828)
    writing force and moment files.

Time = 48

smoothSolver:  Solving for Ux, Initial residual = 3.74436e-05, Final residual = 3.00597e-06, No Iterations 1
smoothSolver:  Solving for Uy, Initial residual = 0.00186785, Final residual = 0.000119043, No Iterations 1
smoothSolver:  Solving for Uz, Initial residual = 0.00297274, Final residual = 0.000165734, No Iterations 1
GAMG:  Solving for p, Initial residual = 0.00418366, Final residual = 0.000184277, No Iterations 2
time step continuity errors : sum local = 2.87284e-06, global = -3.67662e-07, cumulative = 9.14625e-06
smoothSolver:  Solving for omega, Initial residual = 1.76901e-06, Final residual = 4.88485e-08, No Iterations 2
smoothSolver:  Solving for k, Initial residual = 0.000180033, Final residual = 1.13493e-05, No Iterations 1
ExecutionTime = 28.39 s  ClockTime = 28 s

forces forcesFish write:
    Sum of forces
        Total    : (0.458465 0.0294895 -0.0107033)
        Pressure : (0.196778 0.0284919 -0.0107108)
        Viscous  : (0.261687 0.000997513 7.49232e-06)
    Sum of moments
        Total    : (0.000122392 0.00407344 0.00865219)
        Pressure : (0.000121856 0.00408046 0.0082682)
        Viscous  : (5.36075e-07 -7.02263e-06 0.000383983)
    writing force and moment files.

Time = 49

smoothSolver:  Solving for Ux, Initial residual = 3.30021e-05, Final residual = 2.7866e-06, No Iterations 1
smoothSolver:  Solving for Uy, Initial residual = 0.00182006, Final residual = 0.00011679, No Iterations 1
smoothSolver:  Solving for Uz, Initial residual = 0.00276444, Final residual = 0.000152624, No Iterations 1
GAMG:  Solving for p, Initial residual = 0.00391528, Final residual = 0.000169088, No Iterations 2
time step continuity errors : sum local = 2.63668e-06, global = -3.79807e-07, cumulative = 8.76645e-06
smoothSolver:  Solving for omega, Initial residual = 1.50188e-06, Final residual = 4.36241e-08, No Iterations 2
smoothSolver:  Solving for k, Initial residual = 0.000149392, Final residual = 1.01915e-05, No Iterations 1
ExecutionTime = 28.96 s  ClockTime = 29 s

forces forcesFish write:
    Sum of forces
        Total    : (0.45801 0.0292217 -0.0106614)
        Pressure : (0.196723 0.0282236 -0.0106692)
        Viscous  : (0.261287 0.000998094 7.83443e-06)
    Sum of moments
        Total    : (0.000120643 0.00405319 0.0085693)
        Pressure : (0.000120114 0.00406036 0.00818518)
        Viscous  : (5.29297e-07 -7.16406e-06 0.000384122)
    writing force and moment files.

Time = 50

smoothSolver:  Solving for Ux, Initial residual = 3.03923e-05, Final residual = 2.62409e-06, No Iterations 1
smoothSolver:  Solving for Uy, Initial residual = 0.00176672, Final residual = 0.000114438, No Iterations 1
smoothSolver:  Solving for Uz, Initial residual = 0.00257328, Final residual = 0.000140882, No Iterations 1
GAMG:  Solving for p, Initial residual = 0.00365731, Final residual = 0.000153863, No Iterations 2
time step continuity errors : sum local = 2.39975e-06, global = -3.78087e-07, cumulative = 8.38836e-06
smoothSolver:  Solving for omega, Initial residual = 1.28874e-06, Final residual = 3.9097e-08, No Iterations 2
smoothSolver:  Solving for k, Initial residual = 0.000124286, Final residual = 9.18346e-06, No Iterations 1
ExecutionTime = 29.51 s  ClockTime = 29 s

forces forcesFish write:
    Sum of forces
        Total    : (0.457565 0.0289836 -0.010629)
        Pressure : (0.196661 0.0279847 -0.0106365)
        Viscous  : (0.260905 0.00099895 7.5331e-06)
    Sum of moments
        Total    : (0.000119027 0.00403433 0.00849108)
        Pressure : (0.000118496 0.00404137 0.00810668)
        Viscous  : (5.30511e-07 -7.03802e-06 0.000384397)
    writing force and moment files.

Time = 51

smoothSolver:  Solving for Ux, Initial residual = 2.92084e-05, Final residual = 2.51889e-06, No Iterations 1
smoothSolver:  Solving for Uy, Initial residual = 0.00172213, Final residual = 0.000112612, No Iterations 1
smoothSolver:  Solving for Uz, Initial residual = 0.00238103, Final residual = 0.000129453, No Iterations 1
GAMG:  Solving for p, Initial residual = 0.00341271, Final residual = 0.000142489, No Iterations 2
time step continuity errors : sum local = 2.22248e-06, global = -3.39016e-07, cumulative = 8.04934e-06
smoothSolver:  Solving for omega, Initial residual = 1.11722e-06, Final residual = 3.51572e-08, No Iterations 2
smoothSolver:  Solving for k, Initial residual = 0.0001038, Final residual = 8.30144e-06, No Iterations 1
ExecutionTime = 30.08 s  ClockTime = 30 s

forces forcesFish write:
    Sum of forces
        Total    : (0.45711 0.0287787 -0.0105845)
        Pressure : (0.196571 0.0277794 -0.0105913)
        Viscous  : (0.260539 0.000999295 6.83865e-06)
    Sum of moments
        Total    : (0.000117499 0.00401049 0.0084193)
        Pressure : (0.00011696 0.00401724 0.00803481)
        Viscous  : (5.39539e-07 -6.7487e-06 0.000384484)
    writing force and moment files.

Time = 52

smoothSolver:  Solving for Ux, Initial residual = 2.86149e-05, Final residual = 2.44014e-06, No Iterations 1
smoothSolver:  Solving for Uy, Initial residual = 0.00169192, Final residual = 0.00011127, No Iterations 1
smoothSolver:  Solving for Uz, Initial residual = 0.00220555, Final residual = 0.000119344, No Iterations 1
GAMG:  Solving for p, Initial residual = 0.00318699, Final residual = 0.000133164, No Iterations 2
time step continuity errors : sum local = 2.07667e-06, global = -3.01983e-07, cumulative = 7.74736e-06
smoothSolver:  Solving for omega, Initial residual = 9.77203e-07, Final residual = 3.17586e-08, No Iterations 2
smoothSolver:  Solving for k, Initial residual = 8.71588e-05, Final residual = 7.52756e-06, No Iterations 1
ExecutionTime = 30.65 s  ClockTime = 30 s

forces forcesFish write:
    Sum of forces
        Total    : (0.456645 0.0286015 -0.0105131)
        Pressure : (0.196457 0.027603 -0.0105195)
        Viscous  : (0.260188 0.000998446 6.38548e-06)
    Sum of moments
        Total    : (0.000116003 0.00397753 0.00835331)
        Pressure : (0.000115457 0.00398408 0.00796919)
        Viscous  : (5.46466e-07 -6.5503e-06 0.000384114)
    writing force and moment files.

Time = 53

smoothSolver:  Solving for Ux, Initial residual = 2.78498e-05, Final residual = 2.36019e-06, No Iterations 1
smoothSolver:  Solving for Uy, Initial residual = 0.00166161, Final residual = 0.000109762, No Iterations 1
smoothSolver:  Solving for Uz, Initial residual = 0.0020588, Final residual = 0.000110144, No Iterations 1
GAMG:  Solving for p, Initial residual = 0.0029764, Final residual = 0.000124284, No Iterations 2
time step continuity errors : sum local = 1.93753e-06, global = -2.69308e-07, cumulative = 7.47805e-06
smoothSolver:  Solving for omega, Initial residual = 8.62236e-07, Final residual = 2.88065e-08, No Iterations 2
smoothSolver:  Solving for k, Initial residual = 7.36795e-05, Final residual = 6.84566e-06, No Iterations 1
ExecutionTime = 31.19 s  ClockTime = 31 s

forces forcesFish write:
    Sum of forces
        Total    : (0.456153 0.0284489 -0.010408)
        Pressure : (0.196301 0.0274525 -0.0104154)
        Viscous  : (0.259852 0.000996408 7.42943e-06)
    Sum of moments
        Total    : (0.000114478 0.0039336 0.00829304)
        Pressure : (0.000113949 0.00394055 0.00790978)
        Viscous  : (5.28757e-07 -6.94581e-06 0.00038326)
    writing force and moment files.

Time = 54

smoothSolver:  Solving for Ux, Initial residual = 2.66926e-05, Final residual = 2.26939e-06, No Iterations 1
smoothSolver:  Solving for Uy, Initial residual = 0.0016302, Final residual = 0.000107927, No Iterations 1
smoothSolver:  Solving for Uz, Initial residual = 0.00193936, Final residual = 0.000102189, No Iterations 1
GAMG:  Solving for p, Initial residual = 0.0027805, Final residual = 0.000116945, No Iterations 2
time step continuity errors : sum local = 1.82213e-06, global = -2.57597e-07, cumulative = 7.22046e-06
smoothSolver:  Solving for omega, Initial residual = 7.7062e-07, Final residual = 2.62434e-08, No Iterations 2
smoothSolver:  Solving for k, Initial residual = 6.27658e-05, Final residual = 6.2416e-06, No Iterations 1
ExecutionTime = 31.73 s  ClockTime = 32 s

forces forcesFish write:
    Sum of forces
        Total    : (0.455662 0.0283122 -0.0102716)
        Pressure : (0.196128 0.0273174 -0.0102776)
        Viscous  : (0.259534 0.000994858 6.00782e-06)
    Sum of moments
        Total    : (0.000112948 0.00388009 0.00823701)
        Pressure : (0.000112396 0.00388645 0.00785436)
        Viscous  : (5.51655e-07 -6.35999e-06 0.000382655)
    writing force and moment files.

Time = 55

smoothSolver:  Solving for Ux, Initial residual = 2.51531e-05, Final residual = 2.16323e-06, No Iterations 1
smoothSolver:  Solving for Uy, Initial residual = 0.00160879, Final residual = 0.000106468, No Iterations 1
smoothSolver:  Solving for Uz, Initial residual = 0.00182591, Final residual = 9.4949e-05, No Iterations 1
GAMG:  Solving for p, Initial residual = 0.00259578, Final residual = 0.000110183, No Iterations 2
time step continuity errors : sum local = 1.71553e-06, global = -2.64499e-07, cumulative = 6.95596e-06
smoothSolver:  Solving for omega, Initial residual = 6.93764e-07, Final residual = 2.40031e-08, No Iterations 2
smoothSolver:  Solving for k, Initial residual = 5.3916e-05, Final residual = 1.16268e-06, No Iterations 2
ExecutionTime = 32.28 s  ClockTime = 32 s

forces forcesFish write:
    Sum of forces
        Total    : (0.455123 0.0281859 -0.0101014)
        Pressure : (0.195932 0.0271944 -0.0101077)
        Viscous  : (0.259191 0.000991485 6.26753e-06)
    Sum of moments
        Total    : (0.000111277 0.00381587 0.00818384)
        Pressure : (0.00011073 0.00382232 0.00780254)
        Viscous  : (5.47866e-07 -6.44275e-06 0.000381299)
    writing force and moment files.

Time = 56

smoothSolver:  Solving for Ux, Initial residual = 2.32952e-05, Final residual = 2.04392e-06, No Iterations 1
smoothSolver:  Solving for Uy, Initial residual = 0.001591, Final residual = 0.000104907, No Iterations 1
smoothSolver:  Solving for Uz, Initial residual = 0.00172463, Final residual = 8.9204e-05, No Iterations 1
GAMG:  Solving for p, Initial residual = 0.00242626, Final residual = 9.97312e-05, No Iterations 2
time step continuity errors : sum local = 1.55137e-06, global = -2.57476e-07, cumulative = 6.69848e-06
smoothSolver:  Solving for omega, Initial residual = 6.46626e-07, Final residual = 2.25082e-08, No Iterations 2
smoothSolver:  Solving for k, Initial residual = 4.64331e-05, Final residual = 1.06834e-06, No Iterations 2
ExecutionTime = 32.82 s  ClockTime = 33 s

forces forcesFish write:
    Sum of forces
        Total    : (0.454584 0.0280698 -0.00991107)
        Pressure : (0.195716 0.0270814 -0.00991753)
        Viscous  : (0.258868 0.000988443 6.46681e-06)
    Sum of moments
        Total    : (0.000109541 0.00374565 0.00813441)
        Pressure : (0.000108999 0.00375216 0.00775433)
        Viscous  : (5.42161e-07 -6.50475e-06 0.000380084)
    writing force and moment files.

Time = 57

smoothSolver:  Solving for Ux, Initial residual = 2.13754e-05, Final residual = 1.92325e-06, No Iterations 1
smoothSolver:  Solving for Uy, Initial residual = 0.00156793, Final residual = 0.000103328, No Iterations 1
smoothSolver:  Solving for Uz, Initial residual = 0.00163136, Final residual = 8.50658e-05, No Iterations 1
GAMG:  Solving for p, Initial residual = 0.00227296, Final residual = 9.16204e-05, No Iterations 2
time step continuity errors : sum local = 1.42368e-06, global = -2.22408e-07, cumulative = 6.47607e-06
smoothSolver:  Solving for omega, Initial residual = 6.0085e-07, Final residual = 2.1073e-08, No Iterations 2
smoothSolver:  Solving for k, Initial residual = 4.02921e-05, Final residual = 9.69332e-07, No Iterations 2
ExecutionTime = 33.36 s  ClockTime = 33 s

forces forcesFish write:
    Sum of forces
        Total    : (0.454057 0.0279636 -0.00971367)
        Pressure : (0.195495 0.0269794 -0.00971953)
        Viscous  : (0.258562 0.000984204 5.86261e-06)
    Sum of moments
        Total    : (0.000107751 0.00367365 0.00808913)
        Pressure : (0.000107197 0.0036799 0.00771073)
        Viscous  : (5.54158e-07 -6.24901e-06 0.000378397)
    writing force and moment files.

Time = 58

smoothSolver:  Solving for Ux, Initial residual = 1.98843e-05, Final residual = 1.82184e-06, No Iterations 1
smoothSolver:  Solving for Uy, Initial residual = 0.00152673, Final residual = 0.000101289, No Iterations 1
smoothSolver:  Solving for Uz, Initial residual = 0.0015297, Final residual = 8.10877e-05, No Iterations 1
GAMG:  Solving for p, Initial residual = 0.00212561, Final residual = 8.63809e-05, No Iterations 2
time step continuity errors : sum local = 1.34086e-06, global = -1.81958e-07, cumulative = 6.29412e-06
smoothSolver:  Solving for omega, Initial residual = 5.58945e-07, Final residual = 1.97242e-08, No Iterations 2
smoothSolver:  Solving for k, Initial residual = 3.52164e-05, Final residual = 8.76562e-07, No Iterations 2
ExecutionTime = 33.92 s  ClockTime = 34 s

forces forcesFish write:
    Sum of forces
        Total    : (0.453542 0.0278693 -0.00951964)
        Pressure : (0.195267 0.0268889 -0.00952507)
        Viscous  : (0.258275 0.000980425 5.42787e-06)
    Sum of moments
        Total    : (0.000105919 0.00360309 0.00804885)
        Pressure : (0.00010536 0.00360915 0.00767195)
        Viscous  : (5.58958e-07 -6.06174e-06 0.000376894)
    writing force and moment files.

Time = 59

smoothSolver:  Solving for Ux, Initial residual = 1.91139e-05, Final residual = 1.7477e-06, No Iterations 1
smoothSolver:  Solving for Uy, Initial residual = 0.00147674, Final residual = 9.91636e-05, No Iterations 1
smoothSolver:  Solving for Uz, Initial residual = 0.00142467, Final residual = 7.73e-05, No Iterations 1
GAMG:  Solving for p, Initial residual = 0.00199266, Final residual = 8.50209e-05, No Iterations 2
time step continuity errors : sum local = 1.3186e-06, global = -1.49913e-07, cumulative = 6.1442e-06
smoothSolver:  Solving for omega, Initial residual = 5.20015e-07, Final residual = 1.84645e-08, No Iterations 2
smoothSolver:  Solving for k, Initial residual = 3.09869e-05, Final residual = 7.91809e-07, No Iterations 2
ExecutionTime = 34.48 s  ClockTime = 34 s

forces forcesFish write:
    Sum of forces
        Total    : (0.453024 0.0277868 -0.0093379)
        Pressure : (0.195022 0.0268115 -0.00934479)
        Viscous  : (0.258002 0.000975297 6.88721e-06)
    Sum of moments
        Total    : (0.000104106 0.00353688 0.00801299)
        Pressure : (0.000103571 0.00354351 0.00763818)
        Viscous  : (5.34677e-07 -6.6307e-06 0.000374805)
    writing force and moment files.

Time = 60

smoothSolver:  Solving for Ux, Initial residual = 1.87777e-05, Final residual = 1.69028e-06, No Iterations 1
smoothSolver:  Solving for Uy, Initial residual = 0.00141868, Final residual = 9.65208e-05, No Iterations 1
smoothSolver:  Solving for Uz, Initial residual = 0.00133158, Final residual = 7.40364e-05, No Iterations 1
GAMG:  Solving for p, Initial residual = 0.00186677, Final residual = 8.12414e-05, No Iterations 2
time step continuity errors : sum local = 1.25912e-06, global = -1.12144e-07, cumulative = 6.03206e-06
smoothSolver:  Solving for omega, Initial residual = 4.8558e-07, Final residual = 1.73381e-08, No Iterations 2
smoothSolver:  Solving for k, Initial residual = 2.74128e-05, Final residual = 7.14715e-07, No Iterations 2
ExecutionTime = 35.05 s  ClockTime = 35 s

forces forcesFish write:
    Sum of forces
        Total    : (0.452548 0.0277093 -0.00916946)
        Pressure : (0.1948 0.0267382 -0.00917428)
        Viscous  : (0.257748 0.000971134 4.81706e-06)
    Sum of moments
        Total    : (0.000102338 0.00347535 0.00797948)
        Pressure : (0.000101769 0.00348115 0.00760634)
        Viscous  : (5.68674e-07 -5.79464e-06 0.000373141)
    writing force and moment files.

Time = 61

smoothSolver:  Solving for Ux, Initial residual = 1.8595e-05, Final residual = 1.63971e-06, No Iterations 1
smoothSolver:  Solving for Uy, Initial residual = 0.00137816, Final residual = 9.44862e-05, No Iterations 1
smoothSolver:  Solving for Uz, Initial residual = 0.00124147, Final residual = 7.02454e-05, No Iterations 1
GAMG:  Solving for p, Initial residual = 0.00174986, Final residual = 7.71114e-05, No Iterations 2
time step continuity errors : sum local = 1.19451e-06, global = -5.73361e-08, cumulative = 5.97472e-06
smoothSolver:  Solving for omega, Initial residual = 4.53609e-07, Final residual = 1.62894e-08, No Iterations 2
smoothSolver:  Solving for k, Initial residual = 2.43648e-05, Final residual = 6.44604e-07, No Iterations 2
ExecutionTime = 35.6 s  ClockTime = 35 s

forces forcesFish write:
    Sum of forces
        Total    : (0.452078 0.0276386 -0.00900856)
        Pressure : (0.194571 0.026673 -0.00901462)
        Viscous  : (0.257507 0.000965557 6.06544e-06)
    Sum of moments
        Total    : (0.000100522 0.00341606 0.00794788)
        Pressure : (9.99739e-05 0.00342234 0.00757704)
        Viscous  : (5.48059e-07 -6.27972e-06 0.000370846)
    writing force and moment files.

Time = 62

smoothSolver:  Solving for Ux, Initial residual = 1.84483e-05, Final residual = 1.59051e-06, No Iterations 1
smoothSolver:  Solving for Uy, Initial residual = 0.00133226, Final residual = 9.18907e-05, No Iterations 1
smoothSolver:  Solving for Uz, Initial residual = 0.00117464, Final residual = 6.73267e-05, No Iterations 1
GAMG:  Solving for p, Initial residual = 0.00164525, Final residual = 7.11361e-05, No Iterations 2
time step continuity errors : sum local = 1.10149e-06, global = 1.24129e-08, cumulative = 5.98713e-06
smoothSolver:  Solving for omega, Initial residual = 4.25823e-07, Final residual = 1.53031e-08, No Iterations 2
smoothSolver:  Solving for k, Initial residual = 2.1738e-05, Final residual = 5.80839e-07, No Iterations 2
ExecutionTime = 36.17 s  ClockTime = 36 s

forces forcesFish write:
    Sum of forces
        Total    : (0.451646 0.0275728 -0.00885928)
        Pressure : (0.194363 0.0266119 -0.00886419)
        Viscous  : (0.257283 0.000960948 4.90692e-06)
    Sum of moments
        Total    : (9.87681e-05 0.00336069 0.0079178)
        Pressure : (9.82021e-05 0.0033665 0.00754885)
        Viscous  : (5.65997e-07 -5.8078e-06 0.000368949)
    writing force and moment files.

Time = 63

smoothSolver:  Solving for Ux, Initial residual = 1.81755e-05, Final residual = 1.53798e-06, No Iterations 1
smoothSolver:  Solving for Uy, Initial residual = 0.00128541, Final residual = 8.92841e-05, No Iterations 1
smoothSolver:  Solving for Uz, Initial residual = 0.00111417, Final residual = 6.42675e-05, No Iterations 1
GAMG:  Solving for p, Initial residual = 0.00154527, Final residual = 6.51671e-05, No Iterations 2
time step continuity errors : sum local = 1.00874e-06, global = 1.00607e-07, cumulative = 6.08774e-06
smoothSolver:  Solving for omega, Initial residual = 3.99044e-07, Final residual = 1.43818e-08, No Iterations 2
smoothSolver:  Solving for k, Initial residual = 1.94595e-05, Final residual = 5.22937e-07, No Iterations 2
ExecutionTime = 36.71 s  ClockTime = 37 s

forces forcesFish write:
    Sum of forces
        Total    : (0.451239 0.0275128 -0.00871409)
        Pressure : (0.194168 0.0265574 -0.008719)
        Viscous  : (0.257072 0.000955312 4.90637e-06)
    Sum of moments
        Total    : (9.69819e-05 0.00330633 0.00788909)
        Pressure : (9.64145e-05 0.00331212 0.00752248)
        Viscous  : (5.67403e-07 -5.79602e-06 0.000366607)
    writing force and moment files.

Time = 64

smoothSolver:  Solving for Ux, Initial residual = 1.76839e-05, Final residual = 1.4805e-06, No Iterations 1
smoothSolver:  Solving for Uy, Initial residual = 0.00123336, Final residual = 8.63514e-05, No Iterations 1
smoothSolver:  Solving for Uz, Initial residual = 0.00105809, Final residual = 6.13897e-05, No Iterations 1
GAMG:  Solving for p, Initial residual = 0.00145251, Final residual = 6.22607e-05, No Iterations 2
time step continuity errors : sum local = 9.63503e-07, global = 1.80721e-07, cumulative = 6.26846e-06
smoothSolver:  Solving for omega, Initial residual = 3.73661e-07, Final residual = 1.35112e-08, No Iterations 2
smoothSolver:  Solving for k, Initial residual = 1.74617e-05, Final residual = 4.70454e-07, No Iterations 2
ExecutionTime = 37.26 s  ClockTime = 37 s

forces forcesFish write:
    Sum of forces
        Total    : (0.450859 0.0274601 -0.0085753)
        Pressure : (0.193985 0.02651 -0.00858064)
        Viscous  : (0.256874 0.000950136 5.34602e-06)
[...]
        Viscous  : (0.254284 0.000807846 4.51094e-06)
    Sum of moments
        Total    : (6.21886e-05 0.00218049 0.00900567)
        Pressure : (6.15704e-05 0.00218578 0.00870844)
        Viscous  : (6.18249e-07 -5.28758e-06 0.000297227)
    writing force and moment files.

Time = 174

smoothSolver:  Solving for Ux, Initial residual = 1.46192e-07, Final residual = 9.28548e-09, No Iterations 1
smoothSolver:  Solving for Uy, Initial residual = 1.17843e-05, Final residual = 7.30461e-07, No Iterations 1
smoothSolver:  Solving for Uz, Initial residual = 2.0203e-05, Final residual = 1.20077e-06, No Iterations 1
GAMG:  Solving for p, Initial residual = 2.05562e-05, Final residual = 1.8254e-06, No Iterations 2
time step continuity errors : sum local = 2.81028e-08, global = -1.41964e-08, cumulative = 7.17856e-06
smoothSolver:  Solving for omega, Initial residual = 8.01839e-09, Final residual = 8.01839e-09, No Iterations 0
smoothSolver:  Solving for k, Initial residual = 3.03279e-08, Final residual = 2.2668e-09, No Iterations 1
ExecutionTime = 98.07 s  ClockTime = 98 s

forces forcesFish write:
    Sum of forces
        Total    : (0.447308 0.0309505 -0.00574337)
        Pressure : (0.193023 0.0301423 -0.00574986)
        Viscous  : (0.254285 0.000808269 6.49297e-06)
    Sum of moments
        Total    : (6.21134e-05 0.00217859 0.00900994)
        Pressure : (6.15285e-05 0.00218467 0.00871254)
        Viscous  : (5.84917e-07 -6.07676e-06 0.000297397)
    writing force and moment files.

Time = 175

smoothSolver:  Solving for Ux, Initial residual = 1.63253e-07, Final residual = 9.5421e-09, No Iterations 1
smoothSolver:  Solving for Uy, Initial residual = 1.12404e-05, Final residual = 6.88961e-07, No Iterations 1
smoothSolver:  Solving for Uz, Initial residual = 1.95515e-05, Final residual = 1.19019e-06, No Iterations 1
GAMG:  Solving for p, Initial residual = 1.99083e-05, Final residual = 1.7276e-06, No Iterations 2
time step continuity errors : sum local = 2.6597e-08, global = -1.26664e-08, cumulative = 7.16589e-06
smoothSolver:  Solving for omega, Initial residual = 9.98008e-09, Final residual = 9.98008e-09, No Iterations 0
smoothSolver:  Solving for k, Initial residual = 2.95885e-08, Final residual = 2.28696e-09, No Iterations 1
ExecutionTime = 98.62 s  ClockTime = 98 s

forces forcesFish write:
    Sum of forces
        Total    : (0.44731 0.0309611 -0.00574063)
        Pressure : (0.193026 0.0301532 -0.00574554)
        Viscous  : (0.254284 0.000807918 4.90367e-06)
    Sum of moments
        Total    : (6.20789e-05 0.00217762 0.00901405)
        Pressure : (6.14672e-05 0.00218307 0.00871682)
        Viscous  : (6.11672e-07 -5.44277e-06 0.000297237)
    writing force and moment files.

Time = 176

smoothSolver:  Solving for Ux, Initial residual = 1.8007e-07, Final residual = 9.77084e-09, No Iterations 1
smoothSolver:  Solving for Uy, Initial residual = 1.07694e-05, Final residual = 6.63467e-07, No Iterations 1
smoothSolver:  Solving for Uz, Initial residual = 1.86444e-05, Final residual = 1.1028e-06, No Iterations 1
GAMG:  Solving for p, Initial residual = 1.93037e-05, Final residual = 1.55846e-06, No Iterations 2
time step continuity errors : sum local = 2.39929e-08, global = -1.07036e-08, cumulative = 7.15519e-06
smoothSolver:  Solving for omega, Initial residual = 9.79358e-09, Final residual = 9.79358e-09, No Iterations 0
smoothSolver:  Solving for k, Initial residual = 2.90988e-08, Final residual = 2.24993e-09, No Iterations 1
ExecutionTime = 99.16 s  ClockTime = 99 s

forces forcesFish write:
    Sum of forces
        Total    : (0.447324 0.0309708 -0.00573924)
        Pressure : (0.19304 0.0301624 -0.00574583)
        Viscous  : (0.254284 0.000808386 6.59226e-06)
    Sum of moments
        Total    : (6.20687e-05 0.00217711 0.00901804)
        Pressure : (6.14851e-05 0.00218323 0.00872061)
        Viscous  : (5.83652e-07 -6.11481e-06 0.000297432)
    writing force and moment files.

Time = 177

smoothSolver:  Solving for Ux, Initial residual = 1.97461e-07, Final residual = 1.00885e-08, No Iterations 1
smoothSolver:  Solving for Uy, Initial residual = 1.03338e-05, Final residual = 6.32816e-07, No Iterations 1
smoothSolver:  Solving for Uz, Initial residual = 1.83166e-05, Final residual = 1.10265e-06, No Iterations 1
GAMG:  Solving for p, Initial residual = 1.82444e-05, Final residual = 1.40068e-06, No Iterations 2
time step continuity errors : sum local = 2.15639e-08, global = -8.52462e-09, cumulative = 7.14666e-06
smoothSolver:  Solving for omega, Initial residual = 1.19242e-08, Final residual = 1.34554e-09, No Iterations 1
smoothSolver:  Solving for k, Initial residual = 2.73237e-08, Final residual = 2.0661e-09, No Iterations 1
ExecutionTime = 99.71 s  ClockTime = 100 s

forces forcesFish write:
    Sum of forces
        Total    : (0.44733 0.0309803 -0.00573838)
        Pressure : (0.193047 0.0301721 -0.00574299)
        Viscous  : (0.254284 0.00080815 4.6159e-06)
    Sum of moments
        Total    : (6.20663e-05 0.00217685 0.00902179)
        Pressure : (6.14494e-05 0.00218218 0.00872447)
        Viscous  : (6.16826e-07 -5.32651e-06 0.000297323)
    writing force and moment files.

Time = 178

smoothSolver:  Solving for Ux, Initial residual = 2.07964e-07, Final residual = 1.0274e-08, No Iterations 1
smoothSolver:  Solving for Uy, Initial residual = 9.86821e-06, Final residual = 6.15171e-07, No Iterations 1
smoothSolver:  Solving for Uz, Initial residual = 1.71389e-05, Final residual = 1.01633e-06, No Iterations 1
GAMG:  Solving for p, Initial residual = 1.70007e-05, Final residual = 1.20155e-06, No Iterations 2
time step continuity errors : sum local = 1.84982e-08, global = -6.18039e-09, cumulative = 7.14048e-06
smoothSolver:  Solving for omega, Initial residual = 8.14662e-09, Final residual = 8.14662e-09, No Iterations 0
smoothSolver:  Solving for k, Initial residual = 2.57545e-08, Final residual = 1.8855e-09, No Iterations 1
ExecutionTime = 100.27 s  ClockTime = 100 s

forces forcesFish write:
    Sum of forces
        Total    : (0.447347 0.0309889 -0.00573624)
        Pressure : (0.193063 0.0301802 -0.00574251)
        Viscous  : (0.254284 0.000808719 6.27076e-06)
    Sum of moments
        Total    : (6.20438e-05 0.00217603 0.00902542)
        Pressure : (6.14551e-05 0.00218201 0.00872786)
        Viscous  : (5.88718e-07 -5.98537e-06 0.000297556)
    writing force and moment files.

Time = 179

smoothSolver:  Solving for Ux, Initial residual = 2.13668e-07, Final residual = 1.0173e-08, No Iterations 1
smoothSolver:  Solving for Uy, Initial residual = 9.32011e-06, Final residual = 5.73368e-07, No Iterations 1
smoothSolver:  Solving for Uz, Initial residual = 1.6085e-05, Final residual = 9.85168e-07, No Iterations 1
GAMG:  Solving for p, Initial residual = 1.65069e-05, Final residual = 1.08239e-06, No Iterations 2
time step continuity errors : sum local = 1.66638e-08, global = -3.72052e-09, cumulative = 7.13676e-06
smoothSolver:  Solving for omega, Initial residual = 8.12343e-09, Final residual = 8.12343e-09, No Iterations 0
smoothSolver:  Solving for k, Initial residual = 2.52356e-08, Final residual = 1.89615e-09, No Iterations 1
ExecutionTime = 100.81 s  ClockTime = 101 s

forces forcesFish write:
    Sum of forces
        Total    : (0.447345 0.030998 -0.0057373)
        Pressure : (0.193062 0.0301899 -0.00574232)
        Viscous  : (0.254283 0.000808142 5.01808e-06)
    Sum of moments
        Total    : (6.20776e-05 0.00217647 0.00902888)
        Pressure : (6.14672e-05 0.00218196 0.00873158)
        Viscous  : (6.10346e-07 -5.48617e-06 0.000297301)
    writing force and moment files.

Time = 180

smoothSolver:  Solving for Ux, Initial residual = 2.16248e-07, Final residual = 1.00524e-08, No Iterations 1
smoothSolver:  Solving for Uy, Initial residual = 8.90364e-06, Final residual = 5.55956e-07, No Iterations 1
smoothSolver:  Solving for Uz, Initial residual = 1.536e-05, Final residual = 9.15367e-07, No Iterations 1
GAMG:  Solving for p, Initial residual = 1.54863e-05, Final residual = 9.00456e-07, No Iterations 2
time step continuity errors : sum local = 1.38628e-08, global = -1.22799e-09, cumulative = 7.13553e-06
smoothSolver:  Solving for omega, Initial residual = 9.6161e-09, Final residual = 9.6161e-09, No Iterations 0
smoothSolver:  Solving for k, Initial residual = 2.47194e-08, Final residual = 1.88294e-09, No Iterations 1
ExecutionTime = 101.37 s  ClockTime = 101 s

forces forcesFish write:
    Sum of forces
        Total    : (0.447364 0.0310059 -0.00573717)
        Pressure : (0.193079 0.0301971 -0.00574337)
        Viscous  : (0.254284 0.000808781 6.19652e-06)
    Sum of moments
        Total    : (6.20908e-05 0.00217641 0.00903223)
        Pressure : (6.15003e-05 0.00218237 0.00873466)
        Viscous  : (5.90449e-07 -5.95429e-06 0.000297574)
    writing force and moment files.

Time = 181

smoothSolver:  Solving for Ux, Initial residual = 2.15169e-07, Final residual = 9.86458e-09, No Iterations 1
smoothSolver:  Solving for Uy, Initial residual = 8.41586e-06, Final residual = 5.2391e-07, No Iterations 1
smoothSolver:  Solving for Uz, Initial residual = 1.44685e-05, Final residual = 8.86369e-07, No Iterations 1
GAMG:  Solving for p, Initial residual = 1.52859e-05, Final residual = 8.34211e-07, No Iterations 2
time step continuity errors : sum local = 1.28431e-08, global = 1.28069e-09, cumulative = 7.13681e-06
smoothSolver:  Solving for omega, Initial residual = 9.69488e-09, Final residual = 9.69488e-09, No Iterations 0
smoothSolver:  Solving for k, Initial residual = 2.45797e-08, Final residual = 1.89203e-09, No Iterations 1
ExecutionTime = 101.89 s  ClockTime = 102 s

forces forcesFish write:
    Sum of forces
        Total    : (0.44736 0.0310143 -0.00574034)
        Pressure : (0.193077 0.0302062 -0.00574553)
        Viscous  : (0.254283 0.000808144 5.19173e-06)
    Sum of moments
        Total    : (6.2161e-05 0.00217766 0.00903541)
        Pressure : (6.15531e-05 0.00218321 0.00873812)
        Viscous  : (6.07928e-07 -5.55461e-06 0.00029729)
    writing force and moment files.

Time = 182

smoothSolver:  Solving for Ux, Initial residual = 2.13227e-07, Final residual = 9.71394e-09, No Iterations 1
smoothSolver:  Solving for Uy, Initial residual = 8.11777e-06, Final residual = 5.18439e-07, No Iterations 1
smoothSolver:  Solving for Uz, Initial residual = 1.40964e-05, Final residual = 8.45233e-07, No Iterations 1
GAMG:  Solving for p, Initial residual = 1.45139e-05, Final residual = 7.30097e-07, No Iterations 2
time step continuity errors : sum local = 1.12402e-08, global = 3.56515e-09, cumulative = 7.14038e-06
smoothSolver:  Solving for omega, Initial residual = 1.10576e-08, Final residual = 1.34538e-09, No Iterations 1
smoothSolver:  Solving for k, Initial residual = 2.29486e-08, Final residual = 1.66289e-09, No Iterations 1
ExecutionTime = 102.42 s  ClockTime = 102 s

forces forcesFish write:
    Sum of forces
        Total    : (0.447381 0.0310214 -0.00574081)
        Pressure : (0.193096 0.0302124 -0.00574687)
        Viscous  : (0.254284 0.000808989 6.06177e-06)
    Sum of moments
        Total    : (6.21836e-05 0.00217781 0.0090385)
        Pressure : (6.1591e-05 0.00218371 0.00874085)
        Viscous  : (5.92609e-07 -5.89942e-06 0.00029765)
    writing force and moment files.

Time = 183

smoothSolver:  Solving for Ux, Initial residual = 2.06252e-07, Final residual = 9.41122e-09, No Iterations 1
smoothSolver:  Solving for Uy, Initial residual = 7.66471e-06, Final residual = 4.92057e-07, No Iterations 1
smoothSolver:  Solving for Uz, Initial residual = 1.33374e-05, Final residual = 8.32725e-07, No Iterations 1
GAMG:  Solving for p, Initial residual = 1.40338e-05, Final residual = 7.74046e-07, No Iterations 2
time step continuity errors : sum local = 1.1917e-08, global = 5.73196e-09, cumulative = 7.14611e-06
smoothSolver:  Solving for omega, Initial residual = 7.58948e-09, Final residual = 7.58948e-09, No Iterations 0
smoothSolver:  Solving for k, Initial residual = 2.19988e-08, Final residual = 1.53106e-09, No Iterations 1
ExecutionTime = 102.96 s  ClockTime = 103 s

forces forcesFish write:
    Sum of forces
        Total    : (0.447379 0.0310288 -0.00574222)
        Pressure : (0.193096 0.0302204 -0.0057472)
        Viscous  : (0.254283 0.000808441 4.97501e-06)
    Sum of moments
        Total    : (6.2224e-05 0.00217836 0.00904134)
        Pressure : (6.16129e-05 0.00218382 0.00874393)
        Viscous  : (6.11077e-07 -5.46689e-06 0.000297403)
    writing force and moment files.

Time = 184

smoothSolver:  Solving for Ux, Initial residual = 1.95867e-07, Final residual = 9.01142e-09, No Iterations 1
smoothSolver:  Solving for Uy, Initial residual = 7.28965e-06, Final residual = 4.7886e-07, No Iterations 1
smoothSolver:  Solving for Uz, Initial residual = 1.26234e-05, Final residual = 7.73971e-07, No Iterations 1
GAMG:  Solving for p, Initial residual = 1.35219e-05, Final residual = 7.93125e-07, No Iterations 2
time step continuity errors : sum local = 1.22107e-08, global = 7.43371e-09, cumulative = 7.15354e-06
smoothSolver:  Solving for omega, Initial residual = 7.75524e-09, Final residual = 7.75524e-09, No Iterations 0
smoothSolver:  Solving for k, Initial residual = 2.09413e-08, Final residual = 1.52597e-09, No Iterations 1
ExecutionTime = 103.49 s  ClockTime = 103 s

forces forcesFish write:
    Sum of forces
        Total    : (0.447395 0.0310354 -0.00574389)
        Pressure : (0.193111 0.0302264 -0.00575024)
        Viscous  : (0.254284 0.000809001 6.35217e-06)
    Sum of moments
        Total    : (6.22685e-05 0.00217895 0.00904414)
        Pressure : (6.16805e-05 0.00218497 0.0087465)
        Viscous  : (5.87989e-07 -6.01434e-06 0.000297644)
    writing force and moment files.

Time = 185

smoothSolver:  Solving for Ux, Initial residual = 1.81699e-07, Final residual = 8.55715e-09, No Iterations 1
smoothSolver:  Solving for Uy, Initial residual = 6.8442e-06, Final residual = 4.55387e-07, No Iterations 1
smoothSolver:  Solving for Uz, Initial residual = 1.18083e-05, Final residual = 7.73228e-07, No Iterations 1
GAMG:  Solving for p, Initial residual = 1.30703e-05, Final residual = 9.34651e-07, No Iterations 2
time step continuity errors : sum local = 1.43898e-08, global = 8.86876e-09, cumulative = 7.16241e-06
smoothSolver:  Solving for omega, Initial residual = 9.19175e-09, Final residual = 9.19175e-09, No Iterations 0
smoothSolver:  Solving for k, Initial residual = 2.05353e-08, Final residual = 1.54302e-09, No Iterations 1
ExecutionTime = 104.01 s  ClockTime = 104 s

forces forcesFish write:
    Sum of forces
        Total    : (0.447396 0.0310421 -0.00574662)
        Pressure : (0.193113 0.0302335 -0.00575142)
        Viscous  : (0.254283 0.000808576 4.80753e-06)
    Sum of moments
        Total    : (6.23309e-05 0.00218 0.00904674)
        Pressure : (6.17168e-05 0.0021854 0.00874928)
        Viscous  : (6.14141e-07 -5.39916e-06 0.000297454)
    writing force and moment files.

Time = 186

smoothSolver:  Solving for Ux, Initial residual = 1.6617e-07, Final residual = 7.95034e-09, No Iterations 1
smoothSolver:  Solving for Uy, Initial residual = 6.53118e-06, Final residual = 4.46384e-07, No Iterations 1
smoothSolver:  Solving for Uz, Initial residual = 1.12415e-05, Final residual = 7.13645e-07, No Iterations 1
GAMG:  Solving for p, Initial residual = 1.30968e-05, Final residual = 1.02786e-06, No Iterations 2
time step continuity errors : sum local = 1.58251e-08, global = 9.86597e-09, cumulative = 7.17228e-06
smoothSolver:  Solving for omega, Initial residual = 9.01516e-09, Final residual = 9.01516e-09, No Iterations 0
smoothSolver:  Solving for k, Initial residual = 2.09438e-08, Final residual = 1.55682e-09, No Iterations 1
ExecutionTime = 104.53 s  ClockTime = 104 s

forces forcesFish write:
    Sum of forces
        Total    : (0.447406 0.0310485 -0.00575045)
        Pressure : (0.193123 0.0302395 -0.00575734)
        Viscous  : (0.254283 0.000808944 6.88295e-06)
    Sum of moments
        Total    : (6.24121e-05 0.00218142 0.00904936)
        Pressure : (6.18328e-05 0.00218764 0.00875175)
        Viscous  : (5.79286e-07 -6.22591e-06 0.000297604)
    writing force and moment files.

Time = 187

smoothSolver:  Solving for Ux, Initial residual = 1.50166e-07, Final residual = 7.51526e-09, No Iterations 1
smoothSolver:  Solving for Uy, Initial residual = 6.27153e-06, Final residual = 4.32651e-07, No Iterations 1
smoothSolver:  Solving for Uz, Initial residual = 1.12882e-05, Final residual = 7.46338e-07, No Iterations 1
GAMG:  Solving for p, Initial residual = 1.28091e-05, Final residual = 1.10615e-06, No Iterations 2
time step continuity errors : sum local = 1.70304e-08, global = 1.04404e-08, cumulative = 7.18272e-06
smoothSolver:  Solving for omega, Initial residual = 1.01907e-08, Final residual = 1.25816e-09, No Iterations 1
smoothSolver:  Solving for k, Initial residual = 1.94797e-08, Final residual = 1.3624e-09, No Iterations 1
ExecutionTime = 105.09 s  ClockTime = 105 s

forces forcesFish write:
    Sum of forces
        Total    : (0.447409 0.0310548 -0.00575497)
        Pressure : (0.193126 0.0302461 -0.00575983)
        Viscous  : (0.254283 0.000808694 4.86426e-06)
    Sum of moments
        Total    : (6.25029e-05 0.00218315 0.00905183)
        Pressure : (6.18898e-05 0.00218858 0.00875433)
        Viscous  : (6.1311e-07 -5.42114e-06 0.000297493)
    writing force and moment files.

Time = 188

smoothSolver:  Solving for Ux, Initial residual = 1.28452e-07, Final residual = 6.8273e-09, No Iterations 1
smoothSolver:  Solving for Uy, Initial residual = 5.93554e-06, Final residual = 4.22496e-07, No Iterations 1
smoothSolver:  Solving for Uz, Initial residual = 1.03742e-05, Final residual = 6.92796e-07, No Iterations 1
GAMG:  Solving for p, Initial residual = 1.1959e-05, Final residual = 1.11964e-06, No Iterations 2
time step continuity errors : sum local = 1.72383e-08, global = 1.05893e-08, cumulative = 7.19331e-06
smoothSolver:  Solving for omega, Initial residual = 7.31223e-09, Final residual = 7.31223e-09, No Iterations 0
smoothSolver:  Solving for k, Initial residual = 1.80026e-08, Final residual = 1.22333e-09, No Iterations 1
ExecutionTime = 105.64 s  ClockTime = 105 s

forces forcesFish write:
    Sum of forces
        Total    : (0.447424 0.0310602 -0.00575778)
        Pressure : (0.19314 0.0302509 -0.0057641)
        Viscous  : (0.254283 0.000809234 6.3136e-06)
    Sum of moments
        Total    : (6.2565e-05 0.00218417 0.00905416)
        Pressure : (6.19763e-05 0.00219017 0.00875644)
        Viscous  : (5.88681e-07 -5.99865e-06 0.000297718)
    writing force and moment files.

Time = 189

smoothSolver:  Solving for Ux, Initial residual = 1.03625e-07, Final residual = 5.89855e-09, No Iterations 1
smoothSolver:  Solving for Uy, Initial residual = 5.52895e-06, Final residual = 3.88142e-07, No Iterations 1
smoothSolver:  Solving for Uz, Initial residual = 9.49343e-06, Final residual = 6.62893e-07, No Iterations 1
GAMG:  Solving for p, Initial residual = 1.16079e-05, Final residual = 9.40299e-07, No Iterations 3
time step continuity errors : sum local = 1.44773e-08, global = 6.24704e-09, cumulative = 7.19955e-06
smoothSolver:  Solving for omega, Initial residual = 7.06304e-09, Final residual = 7.06304e-09, No Iterations 0
smoothSolver:  Solving for k, Initial residual = 1.75286e-08, Final residual = 1.25373e-09, No Iterations 1
ExecutionTime = 106.2 s  ClockTime = 106 s


SIMPLE solution converged in 189 iterations

forces forcesFish write:
    Sum of forces
        Total    : (0.447422 0.0310664 -0.00576363)
        Pressure : (0.193139 0.0302577 -0.00576868)
        Viscous  : (0.254282 0.000808677 5.05183e-06)
    Sum of moments
        Total    : (6.26778e-05 0.00218637 0.0090565)
        Pressure : (6.20675e-05 0.00219187 0.00875902)
        Viscous  : (6.1032e-07 -5.4962e-06 0.000297474)
    writing force and moment files.

End

