/*---------------------------------------------------------------------------*\
| =========                 |                                                 |
| \\      /  F ield         | OpenFOAM: The Open Source CFD Toolbox           |
|  \\    /   O peration     | Version:  2512                                  |
|   \\  /    A nd           | Website:  www.openfoam.com                      |
|    \\/     M anipulation  |                                                 |
\*---------------------------------------------------------------------------*/
Build  : _bd2b6720-20260127 OPENFOAM=2512 version=2512
Arch   : "LSB;label=32;scalar=64"
Exec   : simpleFoam
Date   : Mar 29 2026
Time   : 11:53:01
Host   : mathias-laptop
PID    : 12863
I/O    : uncollated
Case   : /home/mat/OpenFOAM/mat-run/speed_sweep_runs/U_0p6
nProcs : 1
trapFpe: Floating point exception trapping enabled (FOAM_SIGFPE).
memory pool : not available
fileModificationChecking : Monitoring run-time modified files using timeStampMaster (fileModificationSkew 5, maxFileModificationPolls 20)
allowSystemOperations : Allowing user-supplied system call operations

// * * * * * * * * * * * * * * * * * * * * * * * * * * * * * * * * * * * * * //
Create time

Create mesh for time = 0


SIMPLE: convergence criteria
    field p	 tolerance 0.0001
    field U	 tolerance 1e-05
    field "(k|omega)"	 tolerance 1e-05

Reading field p

Reading field U

Reading/calculating face flux field phi

Selecting incompressible transport model Newtonian
Selecting turbulence model type RAS
Selecting RAS turbulence model kOmegaSST
Selecting patchDistMethod meshWave
RAS
{
    RASModel        kOmegaSST;
    turbulence      on;
    printCoeffs     on;
    alphaK1         0.85;
    alphaK2         1;
    alphaOmega1     0.5;
    alphaOmega2     0.856;
    gamma1          0.555556;
    gamma2          0.44;
    beta1           0.075;
    beta2           0.0828;
    betaStar        0.09;
    a1              0.31;
    b1              1;
    c1              10;
    F3              false;
    decayControl    false;
    kInf            0;
    omegaInf        0;
}

No MRF models present

No finite volume options present

Starting time loop

forces forcesFish:
    rho: rhoInf
    Freestream density (rhoInf) set to 1000
    Not including porosity effects

Time = 1

smoothSolver:  Solving for Ux, Initial residual = 1, Final residual = 0.0857447, No Iterations 1
smoothSolver:  Solving for Uy, Initial residual = 1, Final residual = 0.07706, No Iterations 2
smoothSolver:  Solving for Uz, Initial residual = 1, Final residual = 0.0772663, No Iterations 2
GAMG:  Solving for p, Initial residual = 1, Final residual = 0.0595737, No Iterations 5
time step continuity errors : sum local = 0.00042618, global = 6.22848e-05, cumulative = 6.22848e-05
smoothSolver:  Solving for omega, Initial residual = 0.0115719, Final residual = 0.000642374, No Iterations 2
smoothSolver:  Solving for k, Initial residual = 1, Final residual = 0.0189587, No Iterations 2
ExecutionTime = 4.78 s  ClockTime = 5 s

forces forcesFish write:
    Sum of forces
        Total    : (0.730325 -0.00021295 -0.000848932)
        Pressure : (0.58841 -0.000212034 -0.000847511)
        Viscous  : (0.141915 -9.16166e-07 -1.42064e-06)
    Sum of moments
        Total    : (8.73495e-08 0.000176804 6.9619e-05)
        Pressure : (8.78981e-08 0.000176108 7.02274e-05)
        Viscous  : (-5.48619e-10 6.95907e-07 -6.08363e-07)
    writing force and moment files.

Time = 2

smoothSolver:  Solving for Ux, Initial residual = 0.178747, Final residual = 0.0115434, No Iterations 2
smoothSolver:  Solving for Uy, Initial residual = 0.456065, Final residual = 0.0453374, No Iterations 2
smoothSolver:  Solving for Uz, Initial residual = 0.455498, Final residual = 0.0452972, No Iterations 2
GAMG:  Solving for p, Initial residual = 0.195508, Final residual = 0.0106847, No Iterations 3
time step continuity errors : sum local = 0.0007076, global = -0.000110814, cumulative = -4.8529e-05
smoothSolver:  Solving for omega, Initial residual = 0.000907395, Final residual = 3.3746e-05, No Iterations 2
smoothSolver:  Solving for k, Initial residual = 0.255318, Final residual = 0.00471348, No Iterations 2
ExecutionTime = 6.03 s  ClockTime = 6 s

forces forcesFish write:
    Sum of forces
        Total    : (0.732649 -0.000311912 -0.00105366)
        Pressure : (0.602197 -0.000312741 -0.00104935)
        Viscous  : (0.130451 8.28777e-07 -4.31e-06)
    Sum of moments
        Total    : (8.36327e-08 0.000261003 1.13931e-05)
        Pressure : (8.93829e-08 0.000259652 1.19532e-05)
        Viscous  : (-5.75025e-09 1.35098e-06 -5.60038e-07)
    writing force and moment files.

Time = 3

smoothSolver:  Solving for Ux, Initial residual = 0.0351634, Final residual = 0.00213994, No Iterations 2
smoothSolver:  Solving for Uy, Initial residual = 0.285411, Final residual = 0.0268723, No Iterations 2
smoothSolver:  Solving for Uz, Initial residual = 0.283466, Final residual = 0.0267347, No Iterations 2
GAMG:  Solving for p, Initial residual = 0.366523, Final residual = 0.0161715, No Iterations 3
time step continuity errors : sum local = 0.0011385, global = 1.60321e-05, cumulative = -3.2497e-05
smoothSolver:  Solving for omega, Initial residual = 0.000555399, Final residual = 2.56114e-05, No Iterations 2
smoothSolver:  Solving for k, Initial residual = 0.148103, Final residual = 0.0028574, No Iterations 2
ExecutionTime = 7.31 s  ClockTime = 7 s

forces forcesFish write:
    Sum of forces
        Total    : (0.596891 -0.00010597 -0.000349331)
        Pressure : (0.475324 -0.000107889 -0.000345118)
        Viscous  : (0.121567 1.91904e-06 -4.21249e-06)
    Sum of moments
        Total    : (7.10062e-08 0.000146118 6.35256e-05)
        Pressure : (7.72876e-08 0.00014467 6.42453e-05)
        Viscous  : (-6.28144e-09 1.44793e-06 -7.19649e-07)
    writing force and moment files.

Time = 4

smoothSolver:  Solving for Ux, Initial residual = 0.018524, Final residual = 0.00105687, No Iterations 2
smoothSolver:  Solving for Uy, Initial residual = 0.176828, Final residual = 0.0158634, No Iterations 2
smoothSolver:  Solving for Uz, Initial residual = 0.176091, Final residual = 0.0158146, No Iterations 2
GAMG:  Solving for p, Initial residual = 0.457477, Final residual = 0.0294181, No Iterations 3
time step continuity errors : sum local = 0.0019917, global = 0.000164102, cumulative = 0.000131605
smoothSolver:  Solving for omega, Initial residual = 0.000423552, Final residual = 2.06014e-05, No Iterations 2
smoothSolver:  Solving for k, Initial residual = 0.103967, Final residual = 0.00203216, No Iterations 2
ExecutionTime = 8.62 s  ClockTime = 9 s

forces forcesFish write:
    Sum of forces
        Total    : (0.402923 0.00016966 0.000729589)
        Pressure : (0.288261 0.000168343 0.000732322)
        Viscous  : (0.114662 1.31759e-06 -2.73303e-06)
    Sum of moments
        Total    : (4.65558e-08 -5.22061e-05 0.000130571)
        Pressure : (4.71228e-08 -5.32834e-05 0.000131493)
        Viscous  : (-5.67037e-10 1.07732e-06 -9.21759e-07)
    writing force and moment files.

Time = 5

smoothSolver:  Solving for Ux, Initial residual = 0.0113561, Final residual = 0.000564134, No Iterations 2
smoothSolver:  Solving for Uy, Initial residual = 0.0973077, Final residual = 0.00812832, No Iterations 2
smoothSolver:  Solving for Uz, Initial residual = 0.0984876, Final residual = 0.00819546, No Iterations 2
GAMG:  Solving for p, Initial residual = 0.54186, Final residual = 0.0432086, No Iterations 3
time step continuity errors : sum local = 0.00228706, global = 0.000303679, cumulative = 0.000435284
smoothSolver:  Solving for omega, Initial residual = 0.000341069, Final residual = 1.65808e-05, No Iterations 2
smoothSolver:  Solving for k, Initial residual = 0.0807771, Final residual = 0.00158289, No Iterations 2
ExecutionTime = 9.94 s  ClockTime = 10 s

forces forcesFish write:
    Sum of forces
        Total    : (0.211392 0.000417077 0.00161446)
        Pressure : (0.102063 0.000417723 0.00161513)
        Viscous  : (0.109329 -6.45982e-07 -6.71405e-07)
    Sum of moments
        Total    : (1.29389e-08 -0.000238686 0.000167323)
        Pressure : (5.43671e-09 -0.000239036 0.000168483)
        Viscous  : (7.50221e-09 3.49358e-07 -1.15984e-06)
    writing force and moment files.

Time = 6

smoothSolver:  Solving for Ux, Initial residual = 0.00730694, Final residual = 0.000273529, No Iterations 2
smoothSolver:  Solving for Uy, Initial residual = 0.0550393, Final residual = 0.00240105, No Iterations 2
smoothSolver:  Solving for Uz, Initial residual = 0.055619, Final residual = 0.00246818, No Iterations 2
GAMG:  Solving for p, Initial residual = 0.261862, Final residual = 0.0235647, No Iterations 3
time step continuity errors : sum local = 0.00196866, global = 0.000364932, cumulative = 0.000800216
smoothSolver:  Solving for omega, Initial residual = 0.0002888, Final residual = 1.32552e-05, No Iterations 2
smoothSolver:  Solving for k, Initial residual = 0.067204, Final residual = 0.00134212, No Iterations 2
ExecutionTime = 11.25 s  ClockTime = 11 s

forces forcesFish write:
    Sum of forces
        Total    : (0.0629915 0.000567043 0.00190425)
        Pressure : (-0.042206 0.000570074 0.00190325)
        Viscous  : (0.105198 -3.03157e-06 1.00906e-06)
    Sum of moments
        Total    : (-2.13434e-08 -0.000348195 0.000157078)
        Pressure : (-3.53517e-08 -0.000347794 0.00015822)
        Viscous  : (1.40083e-08 -4.01413e-07 -1.1412e-06)
    writing force and moment files.

Time = 7

smoothSolver:  Solving for Ux, Initial residual = 0.00480789, Final residual = 0.000210009, No Iterations 2
smoothSolver:  Solving for Uy, Initial residual = 0.0725524, Final residual = 0.00500469, No Iterations 2
smoothSolver:  Solving for Uz, Initial residual = 0.0699101, Final residual = 0.00479556, No Iterations 2
GAMG:  Solving for p, Initial residual = 0.135331, Final residual = 0.0112596, No Iterations 3
time step continuity errors : sum local = 0.00130338, global = 0.00019146, cumulative = 0.000991676
smoothSolver:  Solving for omega, Initial residual = 0.000259869, Final residual = 1.07122e-05, No Iterations 2
smoothSolver:  Solving for k, Initial residual = 0.0586106, Final residual = 0.00122737, No Iterations 2
ExecutionTime = 12.53 s  ClockTime = 13 s

forces forcesFish write:
    Sum of forces
        Total    : (-0.0242983 0.000556768 0.00144852)
        Pressure : (-0.12621 0.000561451 0.00144699)
        Viscous  : (0.101912 -4.68242e-06 1.53033e-06)
    Sum of moments
        Total    : (-4.49415e-08 -0.000347762 9.83161e-05)
        Pressure : (-6.2368e-08 -0.000346866 9.92917e-05)
        Viscous  : (1.74266e-08 -8.9576e-07 -9.75569e-07)
    writing force and moment files.

Time = 8

smoothSolver:  Solving for Ux, Initial residual = 0.00488857, Final residual = 0.000249439, No Iterations 2
smoothSolver:  Solving for Uy, Initial residual = 0.111182, Final residual = 0.00878583, No Iterations 2
smoothSolver:  Solving for Uz, Initial residual = 0.107664, Final residual = 0.00849864, No Iterations 2
GAMG:  Solving for p, Initial residual = 0.104553, Final residual = 0.00978544, No Iterations 2
time step continuity errors : sum local = 0.00144199, global = 0.000297785, cumulative = 0.00128946
smoothSolver:  Solving for omega, Initial residual = 0.000238919, Final residual = 9.10343e-06, No Iterations 2
smoothSolver:  Solving for k, Initial residual = 0.0521416, Final residual = 0.00113232, No Iterations 2
ExecutionTime = 13.81 s  ClockTime = 14 s

forces forcesFish write:
    Sum of forces
        Total    : (-0.0474507 0.000553045 0.000848203)
        Pressure : (-0.146622 0.000558438 0.000846773)
        Viscous  : (0.0991716 -5.39377e-06 1.42968e-06)
    Sum of moments
        Total    : (-5.36467e-08 -0.000282075 7.77432e-05)
        Pressure : (-7.18488e-08 -0.000280871 7.83625e-05)
        Viscous  : (1.82021e-08 -1.20473e-06 -6.19326e-07)
    writing force and moment files.

Time = 9

smoothSolver:  Solving for Ux, Initial residual = 0.00503963, Final residual = 0.00025817, No Iterations 2
smoothSolver:  Solving for Uy, Initial residual = 0.124404, Final residual = 0.0100052, No Iterations 2
smoothSolver:  Solving for Uz, Initial residual = 0.122514, Final residual = 0.0097964, No Iterations 2
GAMG:  Solving for p, Initial residual = 0.126292, Final residual = 0.0109325, No Iterations 2
time step continuity errors : sum local = 0.00169859, global = 0.000359188, cumulative = 0.00164865
smoothSolver:  Solving for omega, Initial residual = 0.00021067, Final residual = 7.92026e-06, No Iterations 2
smoothSolver:  Solving for k, Initial residual = 0.0467837, Final residual = 0.00104386, No Iterations 2
ExecutionTime = 15.02 s  ClockTime = 15 s

forces forcesFish write:
    Sum of forces
        Total    : (-0.0291324 0.000518431 4.79936e-05)
        Pressure : (-0.125862 0.000523386 4.75846e-05)
        Viscous  : (0.0967292 -4.95519e-06 4.0899e-07)
    Sum of moments
        Total    : (-5.21117e-08 -0.000159519 4.33096e-05)
        Pressure : (-6.84934e-08 -0.000158453 4.35696e-05)
        Viscous  : (1.63817e-08 -1.06611e-06 -2.60082e-07)
    writing force and moment files.

Time = 10

smoothSolver:  Solving for Ux, Initial residual = 0.00456827, Final residual = 0.000226974, No Iterations 2
smoothSolver:  Solving for Uy, Initial residual = 0.108891, Final residual = 0.00869672, No Iterations 2
smoothSolver:  Solving for Uz, Initial residual = 0.110719, Final residual = 0.0087194, No Iterations 2
GAMG:  Solving for p, Initial residual = 0.13911, Final residual = 0.0136578, No Iterations 2
time step continuity errors : sum local = 0.0020897, global = 0.00026688, cumulative = 0.00191553
smoothSolver:  Solving for omega, Initial residual = 0.000182158, Final residual = 7.08132e-06, No Iterations 2
smoothSolver:  Solving for k, Initial residual = 0.0422031, Final residual = 0.000963757, No Iterations 2
ExecutionTime = 16.33 s  ClockTime = 17 s

forces forcesFish write:
    Sum of forces
        Total    : (0.0108994 0.000434304 -0.000829752)
        Pressure : (-0.0835331 0.000438407 -0.000828239)
        Viscous  : (0.0944325 -4.10293e-06 -1.51309e-06)
    Sum of moments
        Total    : (-3.88129e-08 -7.97549e-06 3.05134e-06)
        Pressure : (-5.26694e-08 -7.40149e-06 3.17428e-06)
        Viscous  : (1.38564e-08 -5.74007e-07 -1.22939e-07)
    writing force and moment files.

Time = 11

smoothSolver:  Solving for Ux, Initial residual = 0.00392513, Final residual = 0.000178644, No Iterations 2
smoothSolver:  Solving for Uy, Initial residual = 0.0765014, Final residual = 0.00582793, No Iterations 2
smoothSolver:  Solving for Uz, Initial residual = 0.0815903, Final residual = 0.00610784, No Iterations 2
GAMG:  Solving for p, Initial residual = 0.13563, Final residual = 0.00625351, No Iterations 3
time step continuity errors : sum local = 0.000905799, global = 4.64963e-05, cumulative = 0.00196203
smoothSolver:  Solving for omega, Initial residual = 0.000159892, Final residual = 6.46806e-06, No Iterations 2
smoothSolver:  Solving for k, Initial residual = 0.0381771, Final residual = 0.000892175, No Iterations 2
ExecutionTime = 17.64 s  ClockTime = 18 s

forces forcesFish write:
    Sum of forces
        Total    : (0.0611269 7.41951e-05 -0.00143057)
        Pressure : (-0.0310871 7.70713e-05 -0.00142706)
        Viscous  : (0.0922141 -2.87617e-06 -3.50733e-06)
    Sum of moments
        Total    : (-1.34644e-08 0.000133122 -6.33096e-05)
        Pressure : (-2.53798e-08 0.00013305 -6.31934e-05)
        Viscous  : (1.19154e-08 7.14277e-08 -1.16233e-07)
    writing force and moment files.

Time = 12

smoothSolver:  Solving for Ux, Initial residual = 0.00340928, Final residual = 0.00012503, No Iterations 2
smoothSolver:  Solving for Uy, Initial residual = 0.0497317, Final residual = 0.00265371, No Iterations 2
smoothSolver:  Solving for Uz, Initial residual = 0.0531014, Final residual = 0.00282316, No Iterations 2
GAMG:  Solving for p, Initial residual = 0.122256, Final residual = 0.00612995, No Iterations 3
time step continuity errors : sum local = 0.000793936, global = -0.000102879, cumulative = 0.00185915
smoothSolver:  Solving for omega, Initial residual = 0.000143552, Final residual = 5.90282e-06, No Iterations 2
smoothSolver:  Solving for k, Initial residual = 0.0346151, Final residual = 0.000825707, No Iterations 2
ExecutionTime = 18.93 s  ClockTime = 19 s

forces forcesFish write:
    Sum of forces
        Total    : (0.104533 -0.000268687 -0.00154408)
        Pressure : (0.01448 -0.000267396 -0.00153941)
        Viscous  : (0.090053 -1.29145e-06 -4.67305e-06)
    Sum of moments
        Total    : (1.06368e-08 0.000215888 -0.00010411)
        Pressure : (3.9011e-10 0.000215251 -0.000103968)
        Viscous  : (1.02467e-08 6.37422e-07 -1.42679e-07)
    writing force and moment files.

Time = 13

smoothSolver:  Solving for Ux, Initial residual = 0.00287184, Final residual = 9.71917e-05, No Iterations 2
smoothSolver:  Solving for Uy, Initial residual = 0.054538, Final residual = 0.00298172, No Iterations 2
smoothSolver:  Solving for Uz, Initial residual = 0.0560393, Final residual = 0.00297869, No Iterations 2
GAMG:  Solving for p, Initial residual = 0.107435, Final residual = 0.00552307, No Iterations 3
time step continuity errors : sum local = 0.000620036, global = -0.000106547, cumulative = 0.0017526
smoothSolver:  Solving for omega, Initial residual = 0.000133349, Final residual = 5.46944e-06, No Iterations 2
smoothSolver:  Solving for k, Initial residual = 0.0313675, Final residual = 0.000760717, No Iterations 2
ExecutionTime = 20.22 s  ClockTime = 20 s

forces forcesFish write:
    Sum of forces
        Total    : (0.133973 -0.000532136 -0.00116708)
        Pressure : (0.0459772 -0.000532486 -0.00116234)
        Viscous  : (0.0879962 3.50331e-07 -4.73934e-06)
    Sum of moments
        Total    : (2.89113e-08 0.000230987 -0.000114365)
        Pressure : (1.95998e-08 0.000229984 -0.00011424)
        Viscous  : (9.31152e-09 1.00348e-06 -1.24564e-07)
    writing force and moment files.

Time = 14

smoothSolver:  Solving for Ux, Initial residual = 0.00211909, Final residual = 8.19387e-05, No Iterations 2
smoothSolver:  Solving for Uy, Initial residual = 0.0630821, Final residual = 0.00404813, No Iterations 2
smoothSolver:  Solving for Uz, Initial residual = 0.0649621, Final residual = 0.00406956, No Iterations 2
GAMG:  Solving for p, Initial residual = 0.122179, Final residual = 0.00931661, No Iterations 2
time step continuity errors : sum local = 0.000854384, global = -0.00015199, cumulative = 0.00160061
smoothSolver:  Solving for omega, Initial residual = 0.000122999, Final residual = 5.0121e-06, No Iterations 2
smoothSolver:  Solving for k, Initial residual = 0.0284164, Final residual = 0.000699274, No Iterations 2
ExecutionTime = 21.5 s  ClockTime = 22 s

forces forcesFish write:
    Sum of forces
        Total    : (0.145705 -0.000634948 -0.000737386)
        Pressure : (0.0596198 -0.00063643 -0.000733182)
        Viscous  : (0.0860854 1.48196e-06 -4.20454e-06)
    Sum of moments
        Total    : (3.9766e-08 0.000204504 -0.000114637)
        Pressure : (3.07411e-08 0.000203316 -0.000114488)
        Viscous  : (9.0249e-09 1.18819e-06 -1.49057e-07)
    writing force and moment files.

Time = 15

smoothSolver:  Solving for Ux, Initial residual = 0.0018587, Final residual = 7.65929e-05, No Iterations 2
smoothSolver:  Solving for Uy, Initial residual = 0.0613733, Final residual = 0.00405933, No Iterations 2
smoothSolver:  Solving for Uz, Initial residual = 0.0646919, Final residual = 0.00418307, No Iterations 2
GAMG:  Solving for p, Initial residual = 0.156536, Final residual = 0.0100022, No Iterations 2
time step continuity errors : sum local = 0.000802219, global = -0.000112109, cumulative = 0.0014885
smoothSolver:  Solving for omega, Initial residual = 0.000112003, Final residual = 4.66229e-06, No Iterations 2
smoothSolver:  Solving for k, Initial residual = 0.0257398, Final residual = 0.000643568, No Iterations 2
ExecutionTime = 22.74 s  ClockTime = 23 s

forces forcesFish write:
    Sum of forces
        Total    : (0.144508 -0.000666132 -0.000160697)
        Pressure : (0.0601416 -0.000667858 -0.000157415)
        Viscous  : (0.0843668 1.72559e-06 -3.28147e-06)
    Sum of moments
        Total    : (4.36094e-08 0.00013903 -0.000100673)
        Pressure : (3.41609e-08 0.000137836 -0.000100429)
        Viscous  : (9.44848e-09 1.19454e-06 -2.44514e-07)
    writing force and moment files.

Time = 16

smoothSolver:  Solving for Ux, Initial residual = 0.00156277, Final residual = 6.86954e-05, No Iterations 2
smoothSolver:  Solving for Uy, Initial residual = 0.0499738, Final residual = 0.00322682, No Iterations 2
smoothSolver:  Solving for Uz, Initial residual = 0.0543434, Final residual = 0.00344383, No Iterations 2
GAMG:  Solving for p, Initial residual = 0.176073, Final residual = 0.0132365, No Iterations 2
time step continuity errors : sum local = 0.000986983, global = -0.000235294, cumulative = 0.00125321
smoothSolver:  Solving for omega, Initial residual = 0.000100936, Final residual = 4.39267e-06, No Iterations 2
smoothSolver:  Solving for k, Initial residual = 0.0233298, Final residual = 0.00059467, No Iterations 2
ExecutionTime = 23.99 s  ClockTime = 24 s

forces forcesFish write:
    Sum of forces
        Total    : (0.135281 -0.000584997 0.000292381)
        Pressure : (0.0524269 -0.000586225 0.000294563)
        Viscous  : (0.0828539 1.22779e-06 -2.18216e-06)
    Sum of moments
        Total    : (4.08576e-08 6.731e-05 -7.51822e-05)
        Pressure : (3.0646e-08 6.62658e-05 -7.48066e-05)
        Viscous  : (1.02117e-08 1.04413e-06 -3.75578e-07)
    writing force and moment files.

Time = 17

smoothSolver:  Solving for Ux, Initial residual = 0.00134201, Final residual = 5.95059e-05, No Iterations 2
smoothSolver:  Solving for Uy, Initial residual = 0.0360141, Final residual = 0.00214076, No Iterations 2
smoothSolver:  Solving for Uz, Initial residual = 0.0401193, Final residual = 0.00238241, No Iterations 2
GAMG:  Solving for p, Initial residual = 0.166143, Final residual = 0.0141103, No Iterations 2
time step continuity errors : sum local = 0.00105645, global = -0.000222373, cumulative = 0.00103083
smoothSolver:  Solving for omega, Initial residual = 8.96605e-05, Final residual = 4.06918e-06, No Iterations 2
smoothSolver:  Solving for k, Initial residual = 0.0211993, Final residual = 0.000552302, No Iterations 2
ExecutionTime = 25.25 s  ClockTime = 25 s

forces forcesFish write:
    Sum of forces
        Total    : (0.122724 -0.000431863 0.000623958)
        Pressure : (0.0411952 -0.000432125 0.000625085)
        Viscous  : (0.0815284 2.61887e-07 -1.127e-06)
    Sum of moments
        Total    : (3.27362e-08 -2.59569e-06 -4.41678e-05)
        Pressure : (2.19464e-08 -3.40181e-06 -4.36637e-05)
        Viscous  : (1.07897e-08 8.06121e-07 -5.041e-07)
    writing force and moment files.

Time = 18

smoothSolver:  Solving for Ux, Initial residual = 0.00119221, Final residual = 5.14189e-05, No Iterations 2
smoothSolver:  Solving for Uy, Initial residual = 0.0258802, Final residual = 0.0011757, No Iterations 2
smoothSolver:  Solving for Uz, Initial residual = 0.0287801, Final residual = 0.00135764, No Iterations 2
GAMG:  Solving for p, Initial residual = 0.140079, Final residual = 0.0122798, No Iterations 2
time step continuity errors : sum local = 0.000951193, global = -0.000165108, cumulative = 0.000865726
smoothSolver:  Solving for omega, Initial residual = 8.03972e-05, Final residual = 3.74605e-06, No Iterations 2
smoothSolver:  Solving for k, Initial residual = 0.0193012, Final residual = 0.000514869, No Iterations 2
ExecutionTime = 26.49 s  ClockTime = 27 s

forces forcesFish write:
    Sum of forces
        Total    : (0.11027 -0.000226728 0.000783776)
        Pressure : (0.029902 -0.000225863 0.000784083)
        Viscous  : (0.0803684 -8.6512e-07 -3.07436e-07)
    Sum of moments
        Total    : (2.15903e-08 -5.93414e-05 -1.10473e-05)
        Pressure : (1.0662e-08 -5.9886e-05 -1.0445e-05)
        Viscous  : (1.09283e-08 5.44624e-07 -6.02297e-07)
    writing force and moment files.

Time = 19

smoothSolver:  Solving for Ux, Initial residual = 0.00111401, Final residual = 4.52998e-05, No Iterations 2
smoothSolver:  Solving for Uy, Initial residual = 0.0229279, Final residual = 0.000954337, No Iterations 2
smoothSolver:  Solving for Uz, Initial residual = 0.0247576, Final residual = 0.000964817, No Iterations 2
GAMG:  Solving for p, Initial residual = 0.109691, Final residual = 0.00915524, No Iterations 2
time step continuity errors : sum local = 0.00074089, global = -9.27169e-05, cumulative = 0.000773009
smoothSolver:  Solving for omega, Initial residual = 7.35976e-05, Final residual = 3.46923e-06, No Iterations 2
smoothSolver:  Solving for k, Initial residual = 0.0176062, Final residual = 0.000481246, No Iterations 2
ExecutionTime = 27.74 s  ClockTime = 28 s

forces forcesFish write:
    Sum of forces
        Total    : (0.100168 1.19308e-06 0.000759541)
        Pressure : (0.0208271 3.06301e-06 0.000759387)
        Viscous  : (0.0793412 -1.86994e-06 1.54195e-07)
    Sum of moments
        Total    : (9.86727e-09 -9.57301e-05 2.03214e-05)
        Pressure : (-6.9277e-10 -9.60391e-05 2.09747e-05)
        Viscous  : (1.056e-08 3.09017e-07 -6.53266e-07)
    writing force and moment files.

Time = 20

smoothSolver:  Solving for Ux, Initial residual = 0.00106389, Final residual = 4.11545e-05, No Iterations 2
smoothSolver:  Solving for Uy, Initial residual = 0.0239036, Final residual = 0.00120337, No Iterations 2
smoothSolver:  Solving for Uz, Initial residual = 0.0254059, Final residual = 0.00121462, No Iterations 2
GAMG:  Solving for p, Initial residual = 0.0855621, Final residual = 0.00605714, No Iterations 2
time step continuity errors : sum local = 0.000506001, global = -3.41706e-06, cumulative = 0.000769592
smoothSolver:  Solving for omega, Initial residual = 6.80563e-05, Final residual = 3.24444e-06, No Iterations 2
smoothSolver:  Solving for k, Initial residual = 0.0160837, Final residual = 0.000450577, No Iterations 2
ExecutionTime = 29.04 s  ClockTime = 29 s

forces forcesFish write:
    Sum of forces
        Total    : (0.09342 0.000219136 0.000581589)
        Pressure : (0.0150068 0.000221692 0.000581361)
        Viscous  : (0.0784133 -2.5559e-06 2.28085e-07)
    Sum of moments
        Total    : (-3.85967e-10 -0.000109639 4.67357e-05)
        Pressure : (-1.01912e-08 -0.00010977 4.73893e-05)
        Viscous  : (9.80518e-09 1.30841e-07 -6.53575e-07)
    writing force and moment files.

Time = 21

smoothSolver:  Solving for Ux, Initial residual = 0.0010027, Final residual = 3.80936e-05, No Iterations 2
smoothSolver:  Solving for Uy, Initial residual = 0.0240086, Final residual = 0.00135025, No Iterations 2
smoothSolver:  Solving for Uz, Initial residual = 0.0259263, Final residual = 0.00139379, No Iterations 2
GAMG:  Solving for p, Initial residual = 0.0765679, Final residual = 0.00428518, No Iterations 2
time step continuity errors : sum local = 0.000364204, global = 4.38908e-05, cumulative = 0.000813483
smoothSolver:  Solving for omega, Initial residual = 6.27282e-05, Final residual = 3.04563e-06, No Iterations 2
smoothSolver:  Solving for k, Initial residual = 0.014699, Final residual = 0.000422135, No Iterations 2
ExecutionTime = 30.32 s  ClockTime = 31 s

forces forcesFish write:
    Sum of forces
        Total    : (0.0898918 0.00040048 0.000298932)
        Pressure : (0.0123375 0.000403316 0.000298966)
        Viscous  : (0.0775543 -2.8367e-06 -3.46778e-08)
    Sum of moments
        Total    : (-7.80014e-09 -0.00010421 6.51254e-05)
        Pressure : (-1.67308e-08 -0.00010423 6.57398e-05)
        Viscous  : (8.93062e-09 1.97549e-08 -6.14418e-07)
    writing force and moment files.

Time = 22

smoothSolver:  Solving for Ux, Initial residual = 0.000875068, Final residual = 3.4212e-05, No Iterations 2
smoothSolver:  Solving for Uy, Initial residual = 0.0229241, Final residual = 0.00131149, No Iterations 2
smoothSolver:  Solving for Uz, Initial residual = 0.0250024, Final residual = 0.00138908, No Iterations 2
GAMG:  Solving for p, Initial residual = 0.0779509, Final residual = 0.00415638, No Iterations 2
time step continuity errors : sum local = 0.000358735, global = 3.56932e-05, cumulative = 0.000849176
smoothSolver:  Solving for omega, Initial residual = 5.74132e-05, Final residual = 2.85988e-06, No Iterations 2
smoothSolver:  Solving for k, Initial residual = 0.0134461, Final residual = 0.000396012, No Iterations 2
ExecutionTime = 31.57 s  ClockTime = 32 s

forces forcesFish write:
    Sum of forces
        Total    : (0.089001 0.000503719 -1.03366e-05)
        Pressure : (0.0122608 0.000506454 -9.81903e-06)
        Viscous  : (0.0767402 -2.73478e-06 -5.17598e-07)
    Sum of moments
        Total    : (-1.18294e-08 -8.32204e-05 7.12303e-05)
        Pressure : (-1.99698e-08 -8.31888e-05 7.17828e-05)
        Viscous  : (8.14043e-09 -3.16192e-08 -5.52457e-07)
    writing force and moment files.

Time = 23

smoothSolver:  Solving for Ux, Initial residual = 0.000751064, Final residual = 3.0462e-05, No Iterations 2
smoothSolver:  Solving for Uy, Initial residual = 0.0200325, Final residual = 0.0010851, No Iterations 2
smoothSolver:  Solving for Uz, Initial residual = 0.0222372, Final residual = 0.00119103, No Iterations 2
GAMG:  Solving for p, Initial residual = 0.0750903, Final residual = 0.00427122, No Iterations 2
time step continuity errors : sum local = 0.000375983, global = 5.45478e-05, cumulative = 0.000903724
smoothSolver:  Solving for omega, Initial residual = 5.2305e-05, Final residual = 2.67771e-06, No Iterations 2
smoothSolver:  Solving for k, Initial residual = 0.0122997, Final residual = 0.000371538, No Iterations 2
ExecutionTime = 32.81 s  ClockTime = 33 s

forces forcesFish write:
    Sum of forces
        Total    : (0.0898496 0.000491582 -0.000235317)
        Pressure : (0.0138958 0.000493954 -0.00023427)
        Viscous  : (0.0759538 -2.37253e-06 -1.04722e-06)
    Sum of moments
        Total    : (-1.2445e-08 -5.46145e-05 6.31519e-05)
        Pressure : (-2.01783e-08 -5.458e-05 6.36381e-05)
        Viscous  : (7.73337e-09 -3.44261e-08 -4.86188e-07)
    writing force and moment files.

Time = 24

smoothSolver:  Solving for Ux, Initial residual = 0.000636933, Final residual = 2.72938e-05, No Iterations 2
smoothSolver:  Solving for Uy, Initial residual = 0.0164854, Final residual = 0.000788054, No Iterations 2
smoothSolver:  Solving for Uz, Initial residual = 0.0185583, Final residual = 0.00089467, No Iterations 2
GAMG:  Solving for p, Initial residual = 0.0698315, Final residual = 0.0042523, No Iterations 2
time step continuity errors : sum local = 0.000378315, global = 6.34367e-05, cumulative = 0.00096716
smoothSolver:  Solving for omega, Initial residual = 4.79538e-05, Final residual = 2.50649e-06, No Iterations 2
smoothSolver:  Solving for k, Initial residual = 0.0112572, Final residual = 0.000348912, No Iterations 2
ExecutionTime = 34.11 s  ClockTime = 34 s

forces forcesFish write:
    Sum of forces
        Total    : (0.091392 0.000385659 -0.00034978)
        Pressure : (0.0162027 0.000387561 -0.000348309)
        Viscous  : (0.0751892 -1.90182e-06 -1.4716e-06)
    Sum of moments
        Total    : (-1.02242e-08 -2.50701e-05 4.44203e-05)
        Pressure : (-1.79984e-08 -2.50643e-05 4.48522e-05)
        Viscous  : (7.77417e-09 -5.71328e-09 -4.31898e-07)
    writing force and moment files.

Time = 25

smoothSolver:  Solving for Ux, Initial residual = 0.000524208, Final residual = 2.42895e-05, No Iterations 2
smoothSolver:  Solving for Uy, Initial residual = 0.0137437, Final residual = 0.000588926, No Iterations 2
smoothSolver:  Solving for Uz, Initial residual = 0.0155084, Final residual = 0.000653987, No Iterations 2
GAMG:  Solving for p, Initial residual = 0.0630904, Final residual = 0.00380293, No Iterations 2
time step continuity errors : sum local = 0.000339708, global = 5.95189e-05, cumulative = 0.00102668
smoothSolver:  Solving for omega, Initial residual = 4.44118e-05, Final residual = 2.34795e-06, No Iterations 2
smoothSolver:  Solving for k, Initial residual = 0.0103056, Final residual = 0.000327939, No Iterations 2
ExecutionTime = 35.36 s  ClockTime = 36 s

forces forcesFish write:
    Sum of forces
        Total    : (0.0928594 0.000220932 -0.000358095)
        Pressure : (0.0184147 0.000222388 -0.000356396)
        Viscous  : (0.0744447 -1.45555e-06 -1.69844e-06)
    Sum of moments
        Total    : (-6.0996e-09 7.84485e-07 1.97249e-05)
        Pressure : (-1.42988e-08 7.46656e-07 2.01252e-05)
        Viscous  : (8.19924e-09 3.78286e-08 -4.00338e-07)
    writing force and moment files.

Time = 26

smoothSolver:  Solving for Ux, Initial residual = 0.000467084, Final residual = 2.2349e-05, No Iterations 2
smoothSolver:  Solving for Uy, Initial residual = 0.0117353, Final residual = 0.000491137, No Iterations 2
smoothSolver:  Solving for Uz, Initial residual = 0.0133496, Final residual = 0.000536867, No Iterations 2
GAMG:  Solving for p, Initial residual = 0.0543803, Final residual = 0.00308504, No Iterations 2
time step continuity errors : sum local = 0.000275822, global = 5.30555e-05, cumulative = 0.00107973
smoothSolver:  Solving for omega, Initial residual = 4.12327e-05, Final residual = 2.20387e-06, No Iterations 2
smoothSolver:  Solving for k, Initial residual = 0.00943017, Final residual = 0.000308323, No Iterations 2
ExecutionTime = 36.62 s  ClockTime = 37 s

forces forcesFish write:
    Sum of forces
        Total    : (0.093799 4.14221e-05 -0.000288555)
        Pressure : (0.0200766 4.25501e-05 -0.000286848)
        Viscous  : (0.0737224 -1.128e-06 -1.70698e-06)
    Sum of moments
        Total    : (-1.14232e-09 2.01257e-05 -5.29435e-06)
        Pressure : (-1.00021e-08 2.00427e-05 -4.90165e-06)
        Viscous  : (8.85974e-09 8.30135e-08 -3.92697e-07)
    writing force and moment files.

Time = 27

smoothSolver:  Solving for Ux, Initial residual = 0.000471242, Final residual = 2.18245e-05, No Iterations 2
smoothSolver:  Solving for Uy, Initial residual = 0.0103267, Final residual = 0.000474259, No Iterations 2
smoothSolver:  Solving for Uz, Initial residual = 0.0115319, Final residual = 0.000484022, No Iterations 2
GAMG:  Solving for p, Initial residual = 0.0460623, Final residual = 0.00243913, No Iterations 2
time step continuity errors : sum local = 0.000217718, global = 4.47464e-05, cumulative = 0.00112448
smoothSolver:  Solving for omega, Initial residual = 3.83027e-05, Final residual = 2.07226e-06, No Iterations 2
smoothSolver:  Solving for k, Initial residual = 0.00863015, Final residual = 0.000290227, No Iterations 2
ExecutionTime = 37.86 s  ClockTime = 38 s

forces forcesFish write:
    Sum of forces
        Total    : (0.0940442 -0.000110649 -0.000183905)
        Pressure : (0.0210179 -0.000109683 -0.000182363)
        Viscous  : (0.0730263 -9.65984e-07 -1.5426e-06)
    Sum of moments
        Total    : (3.63719e-09 3.20461e-05 -2.54284e-05)
        Pressure : (-5.90919e-09 3.19242e-05 -2.50261e-05)
        Viscous  : (9.54638e-09 1.21968e-07 -4.0229e-07)
    writing force and moment files.

Time = 28

smoothSolver:  Solving for Ux, Initial residual = 0.00046758, Final residual = 2.13302e-05, No Iterations 2
smoothSolver:  Solving for Uy, Initial residual = 0.009353, Final residual = 0.000433029, No Iterations 2
smoothSolver:  Solving for Uz, Initial residual = 0.0103143, Final residual = 0.000453554, No Iterations 2
GAMG:  Solving for p, Initial residual = 0.0394885, Final residual = 0.00201219, No Iterations 2
time step continuity errors : sum local = 0.000178784, global = 1.54187e-05, cumulative = 0.0011399
smoothSolver:  Solving for omega, Initial residual = 3.55581e-05, Final residual = 1.95033e-06, No Iterations 2
smoothSolver:  Solving for k, Initial residual = 0.00789393, Final residual = 0.000273451, No Iterations 2
ExecutionTime = 39.07 s  ClockTime = 39 s

forces forcesFish write:
    Sum of forces
        Total    : (0.0936606 -0.00021781 -7.55132e-05)
        Pressure : (0.0213014 -0.000216833 -7.42357e-05)
        Viscous  : (0.0723592 -9.76433e-07 -1.27751e-06)
    Sum of moments
        Total    : (7.47728e-09 3.75042e-05 -3.85752e-05)
        Pressure : (-2.59659e-09 3.73528e-05 -3.81491e-05)
        Viscous  : (1.00739e-08 1.51362e-07 -4.26034e-07)
    writing force and moment files.

Time = 29

smoothSolver:  Solving for Ux, Initial residual = 0.000447165, Final residual = 2.05647e-05, No Iterations 2
smoothSolver:  Solving for Uy, Initial residual = 0.00840476, Final residual = 0.000358902, No Iterations 2
smoothSolver:  Solving for Uz, Initial residual = 0.00933501, Final residual = 0.000394129, No Iterations 2
GAMG:  Solving for p, Initial residual = 0.0344875, Final residual = 0.00170929, No Iterations 2
time step continuity errors : sum local = 0.000151336, global = -8.45479e-06, cumulative = 0.00113145
smoothSolver:  Solving for omega, Initial residual = 3.2979e-05, Final residual = 1.83722e-06, No Iterations 2
smoothSolver:  Solving for k, Initial residual = 0.00721698, Final residual = 0.000257916, No Iterations 2
ExecutionTime = 40.31 s  ClockTime = 41 s

forces forcesFish write:
    Sum of forces
        Total    : (0.0928547 -0.000278548 2.31991e-05)
        Pressure : (0.0211329 -0.000277415 2.41813e-05)
        Viscous  : (0.0717218 -1.13272e-06 -9.82121e-07)
    Sum of moments
        Total    : (9.87033e-09 3.81433e-05 -4.40005e-05)
        Pressure : (-4.32285e-10 3.79711e-05 -4.35437e-05)
        Viscous  : (1.03026e-08 1.72205e-07 -4.56817e-07)
    writing force and moment files.

Time = 30

smoothSolver:  Solving for Ux, Initial residual = 0.000404509, Final residual = 1.94157e-05, No Iterations 2
smoothSolver:  Solving for Uy, Initial residual = 0.00738257, Final residual = 0.000273275, No Iterations 2
smoothSolver:  Solving for Uz, Initial residual = 0.00834868, Final residual = 0.000312825, No Iterations 2
GAMG:  Solving for p, Initial residual = 0.0309206, Final residual = 0.00172777, No Iterations 2
time step continuity errors : sum local = 0.00015195, global = -1.3081e-07, cumulative = 0.00113131
smoothSolver:  Solving for omega, Initial residual = 3.06441e-05, Final residual = 1.73313e-06, No Iterations 2
smoothSolver:  Solving for k, Initial residual = 0.00659678, Final residual = 0.000243627, No Iterations 2
ExecutionTime = 41.58 s  ClockTime = 42 s

forces forcesFish write:
    Sum of forces
        Total    : (0.0918484 -0.000277846 9.08848e-05)
        Pressure : (0.0207343 -0.000276481 9.16088e-05)
        Viscous  : (0.0711141 -1.36496e-06 -7.24002e-07)
    Sum of moments
        Total    : (1.06206e-08 3.44276e-05 -3.98682e-05)
        Pressure : (4.45133e-10 3.42405e-05 -3.93843e-05)
        Viscous  : (1.01755e-08 1.87085e-07 -4.83863e-07)
    writing force and moment files.

Time = 31

smoothSolver:  Solving for Ux, Initial residual = 0.000347922, Final residual = 1.80388e-05, No Iterations 2
smoothSolver:  Solving for Uy, Initial residual = 0.00651655, Final residual = 0.000208448, No Iterations 2
smoothSolver:  Solving for Uz, Initial residual = 0.00745726, Final residual = 0.000237007, No Iterations 2
GAMG:  Solving for p, Initial residual = 0.0290859, Final residual = 0.00175048, No Iterations 2
time step continuity errors : sum local = 0.000151417, global = 1.5412e-05, cumulative = 0.00114673
smoothSolver:  Solving for omega, Initial residual = 2.85842e-05, Final residual = 1.63798e-06, No Iterations 2
smoothSolver:  Solving for k, Initial residual = 0.00602588, Final residual = 0.000230406, No Iterations 2
ExecutionTime = 42.82 s  ClockTime = 43 s

forces forcesFish write:
    Sum of forces
        Total    : (0.0907996 -0.000211453 0.000107842)
        Pressure : (0.0202646 -0.000209867 0.000108401)
        Viscous  : (0.0705349 -1.58626e-06 -5.5945e-07)
    Sum of moments
        Total    : (9.93032e-09 2.69203e-05 -2.73005e-05)
        Pressure : (1.93711e-10 2.67234e-05 -2.68012e-05)
        Viscous  : (9.73661e-09 1.96849e-07 -4.99261e-07)
    writing force and moment files.

Time = 32

smoothSolver:  Solving for Ux, Initial residual = 0.000298504, Final residual = 1.68691e-05, No Iterations 2
smoothSolver:  Solving for Uy, Initial residual = 0.00584824, Final residual = 0.000191386, No Iterations 2
smoothSolver:  Solving for Uz, Initial residual = 0.0067922, Final residual = 0.000206345, No Iterations 2
GAMG:  Solving for p, Initial residual = 0.0274939, Final residual = 0.00156273, No Iterations 2
time step continuity errors : sum local = 0.000132169, global = 1.79309e-05, cumulative = 0.00116466
smoothSolver:  Solving for omega, Initial residual = 2.68244e-05, Final residual = 1.55133e-06, No Iterations 2
smoothSolver:  Solving for k, Initial residual = 0.00550439, Final residual = 0.000218265, No Iterations 2
ExecutionTime = 44.11 s  ClockTime = 44 s

forces forcesFish write:
    Sum of forces
        Total    : (0.0898097 -0.00010932 8.37992e-05)
        Pressure : (0.0198293 -0.000107579 8.43084e-05)
        Viscous  : (0.0699804 -1.74098e-06 -5.09223e-07)
    Sum of moments
        Total    : (8.26068e-09 1.75578e-05 -1.11053e-05)
        Pressure : (-8.56058e-10 1.7356e-05 -1.06049e-05)
        Viscous  : (9.11674e-09 2.01852e-07 -5.00376e-07)
    writing force and moment files.

Time = 33

smoothSolver:  Solving for Ux, Initial residual = 0.000283933, Final residual = 1.60251e-05, No Iterations 2
smoothSolver:  Solving for Uy, Initial residual = 0.00516155, Final residual = 0.000186729, No Iterations 2
smoothSolver:  Solving for Uz, Initial residual = 0.00609985, Final residual = 0.00020117, No Iterations 2
GAMG:  Solving for p, Initial residual = 0.0259197, Final residual = 0.0011658, No Iterations 2
time step continuity errors : sum local = 9.67487e-05, global = 8.645e-07, cumulative = 0.00116552
smoothSolver:  Solving for omega, Initial residual = 2.52515e-05, Final residual = 1.47213e-06, No Iterations 2
smoothSolver:  Solving for k, Initial residual = 0.00503078, Final residual = 0.000207176, No Iterations 2
ExecutionTime = 45.34 s  ClockTime = 46 s

forces forcesFish write:
    Sum of forces
        Total    : (0.0889418 -8.67828e-06 4.24461e-05)
        Pressure : (0.0194946 -6.86408e-06 4.30012e-05)
        Viscous  : (0.0694471 -1.8142e-06 -5.55138e-07)
    Sum of moments
        Total    : (6.1411e-09 8.19281e-06 3.70029e-06)
        Pressure : (-2.33342e-09 7.99066e-06 4.18942e-06)
        Viscous  : (8.47452e-09 2.02145e-07 -4.89125e-07)
    writing force and moment files.

Time = 34

smoothSolver:  Solving for Ux, Initial residual = 0.000279172, Final residual = 1.54233e-05, No Iterations 2
smoothSolver:  Solving for Uy, Initial residual = 0.00449303, Final residual = 0.000172536, No Iterations 2
smoothSolver:  Solving for Uz, Initial residual = 0.00531977, Final residual = 0.00019103, No Iterations 2
GAMG:  Solving for p, Initial residual = 0.0238193, Final residual = 0.000907539, No Iterations 2
time step continuity errors : sum local = 7.4556e-05, global = -1.82017e-05, cumulative = 0.00114732
smoothSolver:  Solving for omega, Initial residual = 2.37773e-05, Final residual = 1.39785e-06, No Iterations 2
smoothSolver:  Solving for k, Initial residual = 0.00459959, Final residual = 0.000196924, No Iterations 2
ExecutionTime = 46.55 s  ClockTime = 47 s

forces forcesFish write:
    Sum of forces
        Total    : (0.0882317 6.1074e-05 6.42365e-06)
        Pressure : (0.0192996 6.28965e-05 7.08089e-06)
        Viscous  : (0.0689321 -1.82251e-06 -6.57234e-07)
    Sum of moments
        Total    : (4.06348e-09 6.93837e-07 1.34104e-05)
        Pressure : (-3.88804e-09 4.95032e-07 1.38813e-05)
        Viscous  : (7.95152e-09 1.98805e-07 -4.70871e-07)
    writing force and moment files.

Time = 35

smoothSolver:  Solving for Ux, Initial residual = 0.000263811, Final residual = 1.47755e-05, No Iterations 2
smoothSolver:  Solving for Uy, Initial residual = 0.00388522, Final residual = 0.000150081, No Iterations 2
smoothSolver:  Solving for Uz, Initial residual = 0.00458858, Final residual = 0.000171678, No Iterations 2
GAMG:  Solving for p, Initial residual = 0.0215272, Final residual = 0.00092426, No Iterations 2
time step continuity errors : sum local = 7.57541e-05, global = -6.97837e-06, cumulative = 0.00114034
smoothSolver:  Solving for omega, Initial residual = 2.23885e-05, Final residual = 1.32755e-06, No Iterations 2
smoothSolver:  Solving for k, Initial residual = 0.00421042, Final residual = 0.000187485, No Iterations 2
ExecutionTime = 47.85 s  ClockTime = 48 s

forces forcesFish write:
    Sum of forces
        Total    : (0.0876704 0.000103279 -2.12452e-05)
        Pressure : (0.0192366 0.000105056 -2.04661e-05)
        Viscous  : (0.0684337 -1.77643e-06 -7.79065e-07)
    Sum of moments
        Total    : (2.38863e-09 -4.88304e-06 1.84047e-05)
        Pressure : (-5.2397e-09 -5.07553e-06 1.88538e-05)
        Viscous  : (7.62833e-09 1.92485e-07 -4.49179e-07)
    writing force and moment files.

Time = 36

smoothSolver:  Solving for Ux, Initial residual = 0.000246952, Final residual = 1.41383e-05, No Iterations 2
smoothSolver:  Solving for Uy, Initial residual = 0.00349401, Final residual = 0.000129123, No Iterations 2
smoothSolver:  Solving for Uz, Initial residual = 0.00398975, Final residual = 0.000147671, No Iterations 2
GAMG:  Solving for p, Initial residual = 0.0194182, Final residual = 0.000816899, No Iterations 2
time step continuity errors : sum local = 6.69669e-05, global = 2.47699e-06, cumulative = 0.00114282
smoothSolver:  Solving for omega, Initial residual = 2.11073e-05, Final residual = 1.26083e-06, No Iterations 2
smoothSolver:  Solving for k, Initial residual = 0.00386212, Final residual = 0.000178852, No Iterations 2
ExecutionTime = 49.1 s  ClockTime = 49 s

forces forcesFish write:
    Sum of forces
        Total    : (0.087204 0.000118307 -3.86218e-05)
        Pressure : (0.0192539 0.000120002 -3.77344e-05)
        Viscous  : (0.0679501 -1.69423e-06 -8.87432e-07)
    Sum of moments
        Total    : (1.33032e-09 -8.75506e-06 1.8309e-05)
        Pressure : (-6.19476e-09 -8.93748e-06 1.87384e-05)
        Viscous  : (7.52508e-09 1.82424e-07 -4.29415e-07)
    writing force and moment files.

Time = 37

smoothSolver:  Solving for Ux, Initial residual = 0.00022545, Final residual = 1.33731e-05, No Iterations 2
smoothSolver:  Solving for Uy, Initial residual = 0.00325219, Final residual = 0.000117035, No Iterations 2
smoothSolver:  Solving for Uz, Initial residual = 0.00363376, Final residual = 0.000127729, No Iterations 2
GAMG:  Solving for p, Initial residual = 0.0171707, Final residual = 0.000819226, No Iterations 2
time step continuity errors : sum local = 6.74533e-05, global = -3.29986e-06, cumulative = 0.00113952
smoothSolver:  Solving for omega, Initial residual = 1.99542e-05, Final residual = 1.198e-06, No Iterations 2
smoothSolver:  Solving for k, Initial residual = 0.0035495, Final residual = 0.000170845, No Iterations 2
ExecutionTime = 50.43 s  ClockTime = 51 s

forces forcesFish write:
    Sum of forces
        Total    : (0.08678 0.000101996 -4.20403e-05)
        Pressure : (0.0193004 0.000103604 -4.10835e-05)
        Viscous  : (0.0674797 -1.60754e-06 -9.5676e-07)
    Sum of moments
        Total    : (9.56026e-10 -1.03557e-05 1.30155e-05)
        Pressure : (-6.6585e-09 -1.05256e-05 1.34319e-05)
        Viscous  : (7.61453e-09 1.69847e-07 -4.1642e-07)
    writing force and moment files.

Time = 38

smoothSolver:  Solving for Ux, Initial residual = 0.000202422, Final residual = 1.26256e-05, No Iterations 2
smoothSolver:  Solving for Uy, Initial residual = 0.00307081, Final residual = 0.000114253, No Iterations 2
smoothSolver:  Solving for Uz, Initial residual = 0.0034392, Final residual = 0.000119542, No Iterations 2
GAMG:  Solving for p, Initial residual = 0.0149618, Final residual = 0.000765732, No Iterations 2
time step continuity errors : sum local = 6.37562e-05, global = -1.02129e-05, cumulative = 0.00112931
smoothSolver:  Solving for omega, Initial residual = 1.89293e-05, Final residual = 1.13961e-06, No Iterations 2
smoothSolver:  Solving for k, Initial residual = 0.00327035, Final residual = 0.000163415, No Iterations 2
ExecutionTime = 51.71 s  ClockTime = 52 s

forces forcesFish write:
    Sum of forces
        Total    : (0.0863787 6.38389e-05 -3.21911e-05)
        Pressure : (0.0193566 6.53787e-05 -3.12174e-05)
        Viscous  : (0.0670221 -1.53979e-06 -9.73766e-07)
    Sum of moments
        Total    : (1.16155e-09 -9.45745e-06 5.28803e-06)
        Pressure : (-6.6549e-09 -9.61447e-06 5.69908e-06)
        Viscous  : (7.81645e-09 1.57018e-07 -4.11059e-07)
    writing force and moment files.

Time = 39

smoothSolver:  Solving for Ux, Initial residual = 0.000184033, Final residual = 1.20527e-05, No Iterations 2
smoothSolver:  Solving for Uy, Initial residual = 0.0028336, Final residual = 0.000111669, No Iterations 2
smoothSolver:  Solving for Uz, Initial residual = 0.00320806, Final residual = 0.000115059, No Iterations 2
GAMG:  Solving for p, Initial residual = 0.0131184, Final residual = 0.00063118, No Iterations 2
time step continuity errors : sum local = 5.32476e-05, global = -8.28247e-06, cumulative = 0.00112102
smoothSolver:  Solving for omega, Initial residual = 1.79907e-05, Final residual = 1.08502e-06, No Iterations 2
smoothSolver:  Solving for k, Initial residual = 0.00302336, Final residual = 0.000156546, No Iterations 2
ExecutionTime = 52.94 s  ClockTime = 53 s

forces forcesFish write:
    Sum of forces
        Total    : (0.0859852 2.1946e-05 -1.68033e-05)
        Pressure : (0.0194083 2.34424e-05 -1.58616e-05)
        Viscous  : (0.0665769 -1.49637e-06 -9.41773e-07)
    Sum of moments
        Total    : (1.73624e-09 -6.90589e-06 -1.90139e-06)
        Pressure : (-6.29276e-09 -7.05183e-06 -1.48965e-06)
        Viscous  : (8.029e-09 1.45948e-07 -4.11737e-07)
    writing force and moment files.

Time = 40

smoothSolver:  Solving for Ux, Initial residual = 0.000174897, Final residual = 1.16317e-05, No Iterations 2
smoothSolver:  Solving for Uy, Initial residual = 0.00252015, Final residual = 0.000102451, No Iterations 2
smoothSolver:  Solving for Uz, Initial residual = 0.00288045, Final residual = 0.000106017, No Iterations 2
GAMG:  Solving for p, Initial residual = 0.0116308, Final residual = 0.000481796, No Iterations 2
time step continuity errors : sum local = 4.10521e-05, global = -1.39359e-07, cumulative = 0.00112088
smoothSolver:  Solving for omega, Initial residual = 1.71192e-05, Final residual = 1.03372e-06, No Iterations 2
smoothSolver:  Solving for k, Initial residual = 0.00280447, Final residual = 0.000150108, No Iterations 2
ExecutionTime = 54.19 s  ClockTime = 54 s

forces forcesFish write:
    Sum of forces
        Total    : (0.0855836 -1.23406e-05 -3.15149e-06)
        Pressure : (0.01944 -1.08661e-05 -2.27517e-06)
        Viscous  : (0.0661436 -1.47451e-06 -8.76319e-07)
    Sum of moments
        Total    : (2.45029e-09 -3.61537e-06 -7.10929e-06)
        Pressure : (-5.71726e-09 -3.75319e-06 -6.69298e-06)
        Viscous  : (8.16755e-09 1.3782e-07 -4.16316e-07)
    writing force and moment files.

Time = 41

smoothSolver:  Solving for Ux, Initial residual = 0.000168771, Final residual = 1.12941e-05, No Iterations 2
smoothSolver:  Solving for Uy, Initial residual = 0.00218902, Final residual = 8.92192e-05, No Iterations 2
smoothSolver:  Solving for Uz, Initial residual = 0.00249498, Final residual = 9.2446e-05, No Iterations 2
GAMG:  Solving for p, Initial residual = 0.0104293, Final residual = 0.000388627, No Iterations 2
time step continuity errors : sum local = 3.32991e-05, global = 6.01433e-06, cumulative = 0.0011269
smoothSolver:  Solving for omega, Initial residual = 1.63168e-05, Final residual = 9.85835e-07, No Iterations 2
smoothSolver:  Solving for k, Initial residual = 0.00261068, Final residual = 0.000144048, No Iterations 2
ExecutionTime = 55.45 s  ClockTime = 56 s

forces forcesFish write:
    Sum of forces
        Total    : (0.0851638 -3.45652e-05 5.11592e-06)
        Pressure : (0.0194425 -3.30955e-05 5.91303e-06)
        Viscous  : (0.0657213 -1.46962e-06 -7.97107e-07)
    Sum of moments
        Total    : (3.10761e-09 -3.15297e-07 -9.94035e-06)
        Pressure : (-5.07749e-09 -4.48505e-07 -9.51761e-06)
        Viscous  : (8.1851e-09 1.33209e-07 -4.22736e-07)
    writing force and moment files.

Time = 42

smoothSolver:  Solving for Ux, Initial residual = 0.000161961, Final residual = 1.09717e-05, No Iterations 2
smoothSolver:  Solving for Uy, Initial residual = 0.00189306, Final residual = 7.59083e-05, No Iterations 2
smoothSolver:  Solving for Uz, Initial residual = 0.00214077, Final residual = 7.82095e-05, No Iterations 2
GAMG:  Solving for p, Initial residual = 0.00936617, Final residual = 0.000372075, No Iterations 2
time step continuity errors : sum local = 3.19504e-05, global = 3.78585e-06, cumulative = 0.00113068
smoothSolver:  Solving for omega, Initial residual = 1.55731e-05, Final residual = 9.40856e-07, No Iterations 2
smoothSolver:  Solving for k, Initial residual = 0.00243969, Final residual = 0.000138362, No Iterations 2
ExecutionTime = 56.73 s  ClockTime = 57 s

forces forcesFish write:
    Sum of forces
        Total    : (0.0847255 -4.52823e-05 7.25942e-06)
        Pressure : (0.0194159 -4.38046e-05 7.98228e-06)
        Viscous  : (0.0653097 -1.4777e-06 -7.2286e-07)
    Sum of moments
        Total    : (3.57525e-09 2.68674e-06 -1.05957e-05)
        Pressure : (-4.50133e-09 2.55417e-06 -1.01665e-05)
        Viscous  : (8.07658e-09 1.32576e-07 -4.29158e-07)
    writing force and moment files.

Time = 43

smoothSolver:  Solving for Ux, Initial residual = 0.000154776, Final residual = 1.06473e-05, No Iterations 2
smoothSolver:  Solving for Uy, Initial residual = 0.00165931, Final residual = 6.52599e-05, No Iterations 2
smoothSolver:  Solving for Uz, Initial residual = 0.00185755, Final residual = 6.66668e-05, No Iterations 2
GAMG:  Solving for p, Initial residual = 0.00843966, Final residual = 0.000318098, No Iterations 2
time step continuity errors : sum local = 2.73219e-05, global = -8.78753e-08, cumulative = 0.0011306
smoothSolver:  Solving for omega, Initial residual = 1.48783e-05, Final residual = 8.98564e-07, No Iterations 2
smoothSolver:  Solving for k, Initial residual = 0.00228781, Final residual = 0.000132962, No Iterations 2
ExecutionTime = 57.97 s  ClockTime = 58 s

forces forcesFish write:
    Sum of forces
        Total    : (0.0842803 -4.54516e-05 3.38046e-06)
        Pressure : (0.0193719 -4.39592e-05 4.04905e-06)
        Viscous  : (0.0649084 -1.49245e-06 -6.68591e-07)
    Sum of moments
        Total    : (3.79093e-09 5.32108e-06 -9.20512e-06)
        Pressure : (-4.07615e-09 5.18504e-06 -8.7715e-06)
        Viscous  : (7.86708e-09 1.36037e-07 -4.33618e-07)
    writing force and moment files.

Time = 44

smoothSolver:  Solving for Ux, Initial residual = 0.000146436, Final residual = 1.03056e-05, No Iterations 2
smoothSolver:  Solving for Uy, Initial residual = 0.0015073, Final residual = 5.84662e-05, No Iterations 2
smoothSolver:  Solving for Uz, Initial residual = 0.00166837, Final residual = 5.95445e-05, No Iterations 2
GAMG:  Solving for p, Initial residual = 0.00765125, Final residual = 0.00030088, No Iterations 2
time step continuity errors : sum local = 2.57948e-05, global = 2.25785e-06, cumulative = 0.00113285
smoothSolver:  Solving for omega, Initial residual = 1.42287e-05, Final residual = 8.58997e-07, No Iterations 2
smoothSolver:  Solving for k, Initial residual = 0.00215238, Final residual = 0.000127785, No Iterations 2
ExecutionTime = 59.2 s  ClockTime = 59 s

forces forcesFish write:
    Sum of forces
        Total    : (0.0838417 -3.5907e-05 -4.78236e-06)
        Pressure : (0.0193245 -3.44019e-05 -4.13989e-06)
        Viscous  : (0.0645172 -1.50513e-06 -6.42472e-07)
    Sum of moments
        Total    : (3.75393e-09 7.14407e-06 -6.25926e-06)
        Pressure : (-3.84528e-09 7.00123e-06 -5.82453e-06)
        Viscous  : (7.5992e-09 1.42842e-07 -4.34726e-07)
    writing force and moment files.

Time = 45

smoothSolver:  Solving for Ux, Initial residual = 0.000138512, Final residual = 1.00045e-05, No Iterations 2
smoothSolver:  Solving for Uy, Initial residual = 0.00141404, Final residual = 5.52695e-05, No Iterations 2
smoothSolver:  Solving for Uz, Initial residual = 0.00155473, Final residual = 5.63576e-05, No Iterations 2
GAMG:  Solving for p, Initial residual = 0.00696259, Final residual = 0.000281431, No Iterations 2
time step continuity errors : sum local = 2.40155e-05, global = 3.60566e-06, cumulative = 0.00113646
smoothSolver:  Solving for omega, Initial residual = 1.36264e-05, Final residual = 8.21789e-07, No Iterations 2
smoothSolver:  Solving for k, Initial residual = 0.00203247, Final residual = 0.000122869, No Iterations 2
ExecutionTime = 60.47 s  ClockTime = 61 s

forces forcesFish write:
    Sum of forces
        Total    : (0.0834116 -2.19851e-05 -1.30972e-05)
        Pressure : (0.0192757 -2.04728e-05 -1.24533e-05)
        Viscous  : (0.0641359 -1.51227e-06 -6.4393e-07)
    Sum of moments
        Total    : (3.52125e-09 7.71176e-06 -3.2114e-06)
        Pressure : (-3.80588e-09 7.56036e-06 -2.77826e-06)
        Viscous  : (7.32713e-09 1.51396e-07 -4.33133e-07)
    writing force and moment files.

Time = 46

smoothSolver:  Solving for Ux, Initial residual = 0.000135341, Final residual = 9.79908e-06, No Iterations 2
smoothSolver:  Solving for Uy, Initial residual = 0.00133929, Final residual = 5.31607e-05, No Iterations 2
smoothSolver:  Solving for Uz, Initial residual = 0.00146864, Final residual = 5.44476e-05, No Iterations 2
GAMG:  Solving for p, Initial residual = 0.00635972, Final residual = 0.000250651, No Iterations 2
time step continuity errors : sum local = 2.12807e-05, global = 2.08135e-06, cumulative = 0.00113854
smoothSolver:  Solving for omega, Initial residual = 1.30754e-05, Final residual = 7.86894e-07, No Iterations 2
smoothSolver:  Solving for k, Initial residual = 0.00192527, Final residual = 0.000118161, No Iterations 2
ExecutionTime = 61.75 s  ClockTime = 62 s

forces forcesFish write:
    Sum of forces
        Total    : (0.0829925 -8.98525e-06 -1.91403e-05)
        Pressure : (0.0192286 -7.47056e-06 -1.84734e-05)
        Viscous  : (0.0637639 -1.5147e-06 -6.66882e-07)
    Sum of moments
        Total    : (3.17653e-09 7.31667e-06 -8.921e-07)
        Pressure : (-3.92073e-09 7.15647e-06 -4.62051e-07)
        Viscous  : (7.09726e-09 1.60199e-07 -4.30049e-07)
    writing force and moment files.

Time = 47

smoothSolver:  Solving for Ux, Initial residual = 0.000132177, Final residual = 9.566e-06, No Iterations 2
smoothSolver:  Solving for Uy, Initial residual = 0.00126562, Final residual = 5.1442e-05, No Iterations 2
smoothSolver:  Solving for Uz, Initial residual = 0.00138885, Final residual = 5.27479e-05, No Iterations 2
GAMG:  Solving for p, Initial residual = 0.0058275, Final residual = 0.000234778, No Iterations 2
time step continuity errors : sum local = 1.9857e-05, global = 3.21404e-07, cumulative = 0.00113886
smoothSolver:  Solving for omega, Initial residual = 1.25637e-05, Final residual = 7.54267e-07, No Iterations 2
smoothSolver:  Solving for k, Initial residual = 0.00182777, Final residual = 0.000113575, No Iterations 2
ExecutionTime = 63.06 s  ClockTime = 63 s

forces forcesFish write:
    Sum of forces
        Total    : (0.0825878 6.29242e-07 -2.21806e-05)
        Pressure : (0.0191867 2.14298e-06 -2.14783e-05)
        Viscous  : (0.0634011 -1.51373e-06 -7.02308e-07)
    Sum of moments
        Total    : (2.79936e-09 6.3684e-06 4.72555e-07)
        Pressure : (-4.13551e-09 6.2002e-06 8.99002e-07)
        Viscous  : (6.93488e-09 1.68203e-07 -4.26446e-07)
    writing force and moment files.

Time = 48

smoothSolver:  Solving for Ux, Initial residual = 0.000128549, Final residual = 9.31395e-06, No Iterations 2
smoothSolver:  Solving for Uy, Initial residual = 0.00119287, Final residual = 5.06732e-05, No Iterations 2
smoothSolver:  Solving for Uz, Initial residual = 0.00130954, Final residual = 5.16465e-05, No Iterations 2
GAMG:  Solving for p, Initial residual = 0.0053344, Final residual = 0.000226863, No Iterations 2
time step continuity errors : sum local = 1.91429e-05, global = -3.28142e-07, cumulative = 0.00113853
smoothSolver:  Solving for omega, Initial residual = 1.20883e-05, Final residual = 7.23806e-07, No Iterations 2
smoothSolver:  Solving for k, Initial residual = 0.00173958, Final residual = 0.000109163, No Iterations 2
ExecutionTime = 64.3 s  ClockTime = 64 s

forces forcesFish write:
    Sum of forces
        Total    : (0.0821984 6.12254e-06 -2.23262e-05)
        Pressure : (0.0191514 7.63311e-06 -2.15856e-05)
        Viscous  : (0.0630471 -1.51057e-06 -7.40609e-07)
    Sum of moments
        Total    : (2.45128e-09 5.18698e-06 8.97124e-07)
        Pressure : (-4.39289e-09 5.01237e-06 1.32016e-06)
        Viscous  : (6.84417e-09 1.7461e-07 -4.23033e-07)
    writing force and moment files.

Time = 49

smoothSolver:  Solving for Ux, Initial residual = 0.000124642, Final residual = 9.06229e-06, No Iterations 2
smoothSolver:  Solving for Uy, Initial residual = 0.00112701, Final residual = 5.08877e-05, No Iterations 2
smoothSolver:  Solving for Uz, Initial residual = 0.00123264, Final residual = 5.15322e-05, No Iterations 2
GAMG:  Solving for p, Initial residual = 0.00489769, Final residual = 0.00021689, No Iterations 2
time step continuity errors : sum local = 1.8282e-05, global = 2.71124e-07, cumulative = 0.00113881
smoothSolver:  Solving for omega, Initial residual = 1.16408e-05, Final residual = 6.95104e-07, No Iterations 2
smoothSolver:  Solving for k, Initial residual = 0.00165924, Final residual = 0.000104911, No Iterations 2
ExecutionTime = 65.53 s  ClockTime = 66 s

forces forcesFish write:
    Sum of forces
        Total    : (0.0818235 7.61741e-06 -2.02072e-05)
        Pressure : (0.0191223 9.12378e-06 -1.94336e-05)
        Viscous  : (0.0627012 -1.50637e-06 -7.73697e-07)
    Sum of moments
        Total    : (2.17131e-09 4.02909e-06 5.26068e-07)
        Pressure : (-4.64339e-09 3.85005e-06 9.46337e-07)
        Viscous  : (6.8147e-09 1.79041e-07 -4.20269e-07)
    writing force and moment files.

Time = 50

smoothSolver:  Solving for Ux, Initial residual = 0.000120583, Final residual = 8.82049e-06, No Iterations 2
smoothSolver:  Solving for Uy, Initial residual = 0.00107027, Final residual = 5.11396e-05, No Iterations 2
smoothSolver:  Solving for Uz, Initial residual = 0.00116033, Final residual = 5.18509e-05, No Iterations 2
GAMG:  Solving for p, Initial residual = 0.00449219, Final residual = 0.000205056, No Iterations 2
time step continuity errors : sum local = 1.72826e-05, global = 1.63431e-06, cumulative = 0.00114044
smoothSolver:  Solving for omega, Initial residual = 1.12212e-05, Final residual = 6.6791e-07, No Iterations 2
smoothSolver:  Solving for k, Initial residual = 0.00158467, Final residual = 0.000100755, No Iterations 2
ExecutionTime = 66.75 s  ClockTime = 67 s

forces forcesFish write:
    Sum of forces
        Total    : (0.0814604 5.8185e-06 -1.67981e-05)
        Pressure : (0.0190973 7.32081e-06 -1.60018e-05)
        Viscous  : (0.0623632 -1.5023e-06 -7.96271e-07)
    Sum of moments
        Total    : (1.97289e-09 3.08561e-06 -4.08832e-07)
        Pressure : (-4.85268e-09 2.90417e-06 9.6994e-09)
        Viscous  : (6.82557e-09 1.81449e-07 -4.18532e-07)
    writing force and moment files.

Time = 51

smoothSolver:  Solving for Ux, Initial residual = 0.000116454, Final residual = 8.58852e-06, No Iterations 2
smoothSolver:  Solving for Uy, Initial residual = 0.00102014, Final residual = 5.07851e-05, No Iterations 2
smoothSolver:  Solving for Uz, Initial residual = 0.00109523, Final residual = 5.17267e-05, No Iterations 2
GAMG:  Solving for p, Initial residual = 0.0041059, Final residual = 0.000185782, No Iterations 2
time step continuity errors : sum local = 1.56687e-05, global = 3.00501e-06, cumulative = 0.00114344
smoothSolver:  Solving for omega, Initial residual = 1.08278e-05, Final residual = 6.42088e-07, No Iterations 2
smoothSolver:  Solving for k, Initial residual = 0.0015153, Final residual = 9.67177e-05, No Iterations 2
ExecutionTime = 67.97 s  ClockTime = 68 s

forces forcesFish write:
    Sum of forces
        Total    : (0.081106 1.8238e-06 -1.3124e-05)
        Pressure : (0.0190736 3.32325e-06 -1.23176e-05)
        Viscous  : (0.0620325 -1.49945e-06 -8.06361e-07)
    Sum of moments
        Total    : (1.84901e-09 2.47116e-06 -1.6191e-06)
        Pressure : (-5.0039e-09 2.28893e-06 -1.20115e-06)
        Viscous  : (6.85291e-09 1.82232e-07 -4.17943e-07)
    writing force and moment files.

Time = 52

smoothSolver:  Solving for Ux, Initial residual = 0.000112245, Final residual = 8.36156e-06, No Iterations 2
smoothSolver:  Solving for Uy, Initial residual = 0.000974842, Final residual = 4.96625e-05, No Iterations 2
smoothSolver:  Solving for Uz, Initial residual = 0.00103539, Final residual = 5.07033e-05, No Iterations 2
GAMG:  Solving for p, Initial residual = 0.00374527, Final residual = 0.000158015, No Iterations 2
time step continuity errors : sum local = 1.33453e-05, global = 3.06617e-06, cumulative = 0.00114651
smoothSolver:  Solving for omega, Initial residual = 1.0457e-05, Final residual = 6.17513e-07, No Iterations 2
smoothSolver:  Solving for k, Initial residual = 0.00145044, Final residual = 9.28099e-05, No Iterations 2
ExecutionTime = 69.18 s  ClockTime = 69 s

forces forcesFish write:
    Sum of forces
        Total    : (0.0807574 -3.12796e-06 -1.00269e-05)
        Pressure : (0.0190486 -1.6294e-06 -9.22198e-06)
        Viscous  : (0.0617088 -1.49856e-06 -8.04921e-07)
    Sum of moments
        Total    : (1.78006e-09 2.22494e-06 -2.80889e-06)
        Pressure : (-5.09554e-09 2.04299e-06 -2.39054e-06)
        Viscous  : (6.87561e-09 1.81947e-07 -4.18358e-07)
    writing force and moment files.

Time = 53

smoothSolver:  Solving for Ux, Initial residual = 0.000107468, Final residual = 8.1355e-06, No Iterations 2
smoothSolver:  Solving for Uy, Initial residual = 0.000932228, Final residual = 4.79479e-05, No Iterations 2
smoothSolver:  Solving for Uz, Initial residual = 0.000984972, Final residual = 4.88594e-05, No Iterations 2
GAMG:  Solving for p, Initial residual = 0.00341995, Final residual = 0.000134285, No Iterations 2
time step continuity errors : sum local = 1.13646e-05, global = 2.41499e-06, cumulative = 0.00114893
smoothSolver:  Solving for omega, Initial residual = 1.01065e-05, Final residual = 5.94299e-07, No Iterations 2
smoothSolver:  Solving for k, Initial residual = 0.00138912, Final residual = 8.90106e-05, No Iterations 2
ExecutionTime = 70.43 s  ClockTime = 71 s

forces forcesFish write:
    Sum of forces
        Total    : (0.0804145 -7.40411e-06 -8.10808e-06)
        Pressure : (0.0190226 -5.90515e-06 -7.313e-06)
        Viscous  : (0.0613919 -1.49896e-06 -7.95078e-07)
    Sum of moments
        Total    : (1.74068e-09 2.3106e-06 -3.61624e-06)
        Pressure : (-5.13776e-09 2.1294e-06 -3.19709e-06)
        Viscous  : (6.87844e-09 1.81203e-07 -4.19152e-07)
    writing force and moment files.

Time = 54

smoothSolver:  Solving for Ux, Initial residual = 0.000102702, Final residual = 7.91794e-06, No Iterations 2
smoothSolver:  Solving for Uy, Initial residual = 0.000890127, Final residual = 4.58681e-05, No Iterations 2
smoothSolver:  Solving for Uz, Initial residual = 0.000941262, Final residual = 4.65593e-05, No Iterations 2
GAMG:  Solving for p, Initial residual = 0.00313675, Final residual = 0.000121354, No Iterations 2
time step continuity errors : sum local = 1.02934e-05, global = 2.00994e-06, cumulative = 0.00115094
smoothSolver:  Solving for omega, Initial residual = 9.77507e-06, Final residual = 5.72392e-07, No Iterations 2
smoothSolver:  Solving for k, Initial residual = 0.00133057, Final residual = 8.52959e-05, No Iterations 2
ExecutionTime = 71.66 s  ClockTime = 72 s

forces forcesFish write:
    Sum of forces
        Total    : (0.0800776 -1.00043e-05 -7.57172e-06)
        Pressure : (0.0189961 -8.5049e-06 -6.79072e-06)
        Viscous  : (0.0610815 -1.49943e-06 -7.80999e-07)
    Sum of moments
        Total    : (1.70801e-09 2.62523e-06 -3.89914e-06)
        Pressure : (-5.14724e-09 2.44462e-06 -3.47943e-06)
        Viscous  : (6.85524e-09 1.8061e-07 -4.19714e-07)
    writing force and moment files.

Time = 55

smoothSolver:  Solving for Ux, Initial residual = 9.86482e-05, Final residual = 7.71288e-06, No Iterations 2
smoothSolver:  Solving for Uy, Initial residual = 0.000848456, Final residual = 4.37037e-05, No Iterations 2
smoothSolver:  Solving for Uz, Initial residual = 0.000900671, Final residual = 4.42603e-05, No Iterations 2
GAMG:  Solving for p, Initial residual = 0.0029086, Final residual = 0.000116567, No Iterations 2
time step continuity errors : sum local = 9.90635e-06, global = 1.81272e-06, cumulative = 0.00115275
smoothSolver:  Solving for omega, Initial residual = 9.46068e-06, Final residual = 5.51639e-07, No Iterations 2
smoothSolver:  Solving for k, Initial residual = 0.00127496, Final residual = 8.16955e-05, No Iterations 2
ExecutionTime = 72.87 s  ClockTime = 73 s

forces forcesFish write:
    Sum of forces
        Total    : (0.0797466 -1.08225e-05 -8.23487e-06)
        Pressure : (0.0189693 -9.32343e-06 -7.46801e-06)
        Viscous  : (0.0607774 -1.49903e-06 -7.66853e-07)
    Sum of moments
        Total    : (1.66703e-09 3.05992e-06 -3.72774e-06)
        Pressure : (-5.1414e-09 2.87933e-06 -3.3081e-06)
        Viscous  : (6.80843e-09 1.80592e-07 -4.19638e-07)
    writing force and moment files.

Time = 56

smoothSolver:  Solving for Ux, Initial residual = 9.53287e-05, Final residual = 7.52181e-06, No Iterations 2
smoothSolver:  Solving for Uy, Initial residual = 0.000807506, Final residual = 4.17049e-05, No Iterations 2
smoothSolver:  Solving for Uz, Initial residual = 0.000861393, Final residual = 4.22231e-05, No Iterations 2
GAMG:  Solving for p, Initial residual = 0.00272679, Final residual = 0.00011371, No Iterations 2
time step continuity errors : sum local = 9.67701e-06, global = 1.46091e-06, cumulative = 0.00115421
smoothSolver:  Solving for omega, Initial residual = 9.16277e-06, Final residual = 5.3205e-07, No Iterations 2
smoothSolver:  Solving for k, Initial residual = 0.00122188, Final residual = 7.8207e-05, No Iterations 2
ExecutionTime = 74.12 s  ClockTime = 74 s

forces forcesFish write:
    Sum of forces
        Total    : (0.0794214 -1.01798e-05 -9.72542e-06)
        Pressure : (0.0189419 -8.68253e-06 -8.96956e-06)
        Viscous  : (0.0604795 -1.49726e-06 -7.55857e-07)
    Sum of moments
        Total    : (1.61161e-09 3.52575e-06 -3.2438e-06)
        Pressure : (-5.13457e-09 3.3444e-06 -2.82504e-06)
        Viscous  : (6.74618e-09 1.81349e-07 -4.18758e-07)
    writing force and moment files.

Time = 57

smoothSolver:  Solving for Ux, Initial residual = 9.26451e-05, Final residual = 7.34425e-06, No Iterations 2
smoothSolver:  Solving for Uy, Initial residual = 0.00076722, Final residual = 4.00062e-05, No Iterations 2
smoothSolver:  Solving for Uz, Initial residual = 0.000819168, Final residual = 4.04857e-05, No Iterations 2
GAMG:  Solving for p, Initial residual = 0.00257199, Final residual = 0.000114158, No Iterations 2
time step continuity errors : sum local = 9.7239e-06, global = 8.05426e-07, cumulative = 0.00115501
smoothSolver:  Solving for omega, Initial residual = 8.88126e-06, Final residual = 5.13638e-07, No Iterations 2
smoothSolver:  Solving for k, Initial residual = 0.00117066, Final residual = 7.48008e-05, No Iterations 2
ExecutionTime = 75.34 s  ClockTime = 76 s

forces forcesFish write:
    Sum of forces
        Total    : (0.0791019 -8.53571e-06 -1.16253e-05)
        Pressure : (0.0189143 -7.04168e-06 -1.08755e-05)
        Viscous  : (0.0601876 -1.49402e-06 -7.49811e-07)
    Sum of moments
        Total    : (1.54229e-09 3.95337e-06 -2.60015e-06)
        Pressure : (-5.13634e-09 3.7705e-06 -2.18306e-06)
        Viscous  : (6.67863e-09 1.82873e-07 -4.17093e-07)
    writing force and moment files.

Time = 58

smoothSolver:  Solving for Ux, Initial residual = 9.0527e-05, Final residual = 7.18056e-06, No Iterations 2
smoothSolver:  Solving for Uy, Initial residual = 0.000728902, Final residual = 3.87268e-05, No Iterations 2
smoothSolver:  Solving for Uz, Initial residual = 0.000772911, Final residual = 3.91062e-05, No Iterations 2
GAMG:  Solving for p, Initial residual = 0.00243642, Final residual = 0.000116084, No Iterations 2
time step continuity errors : sum local = 9.89298e-06, global = -7.76712e-08, cumulative = 0.00115494
smoothSolver:  Solving for omega, Initial residual = 8.61679e-06, Final residual = 4.96409e-07, No Iterations 2
smoothSolver:  Solving for k, Initial residual = 0.00112126, Final residual = 7.14901e-05, No Iterations 2
ExecutionTime = 76.58 s  ClockTime = 77 s

forces forcesFish write:
    Sum of forces
        Total    : (0.0787887 -6.40227e-06 -1.35433e-05)
        Pressure : (0.0188869 -4.91274e-06 -1.27943e-05)
        Viscous  : (0.0599018 -1.48953e-06 -7.49054e-07)
    Sum of moments
        Total    : (1.46396e-09 4.29409e-06 -1.94547e-06)
        Pressure : (-5.15112e-09 4.10909e-06 -1.53068e-06)
        Viscous  : (6.61508e-09 1.84996e-07 -4.14791e-07)
    writing force and moment files.

Time = 59

smoothSolver:  Solving for Ux, Initial residual = 8.88718e-05, Final residual = 7.03153e-06, No Iterations 2
smoothSolver:  Solving for Uy, Initial residual = 0.000694975, Final residual = 3.79102e-05, No Iterations 2
smoothSolver:  Solving for Uz, Initial residual = 0.000727478, Final residual = 3.81294e-05, No Iterations 2
GAMG:  Solving for p, Initial residual = 0.00231062, Final residual = 0.000114717, No Iterations 2
time step continuity errors : sum local = 9.77864e-06, global = -9.38245e-07, cumulative = 0.001154
smoothSolver:  Solving for omega, Initial residual = 8.36991e-06, Final residual = 4.80297e-07, No Iterations 2
smoothSolver:  Solving for k, Initial residual = 0.00107371, Final residual = 6.82855e-05, No Iterations 2
ExecutionTime = 77.83 s  ClockTime = 78 s

forces forcesFish write:
    Sum of forces
        Total    : (0.0784825 -4.27414e-06 -1.51605e-05)
        Pressure : (0.0188607 -2.78997e-06 -1.44078e-05)
        Viscous  : (0.0596218 -1.48416e-06 -7.52698e-07)
    Sum of moments
        Total    : (1.3834e-09 4.5229e-06 -1.40551e-06)
        Pressure : (-5.1788e-09 4.33543e-06 -9.93422e-07)
        Viscous  : (6.56221e-09 1.87472e-07 -4.12086e-07)
    writing force and moment files.

Time = 60

smoothSolver:  Solving for Ux, Initial residual = 8.75124e-05, Final residual = 6.89175e-06, No Iterations 2
smoothSolver:  Solving for Uy, Initial residual = 0.000667884, Final residual = 3.7501e-05, No Iterations 2
smoothSolver:  Solving for Uz, Initial residual = 0.00068716, Final residual = 3.75152e-05, No Iterations 2
GAMG:  Solving for p, Initial residual = 0.00219127, Final residual = 0.000109537, No Iterations 2
time step continuity errors : sum local = 9.33709e-06, global = -1.65053e-06, cumulative = 0.00115235
smoothSolver:  Solving for omega, Initial residual = 8.14041e-06, Final residual = 4.65219e-07, No Iterations 2
smoothSolver:  Solving for k, Initial residual = 0.00102791, Final residual = 6.51859e-05, No Iterations 2
ExecutionTime = 79.05 s  ClockTime = 79 s

forces forcesFish write:
    Sum of forces
        Total    : (0.0781838 -2.59854e-06 -1.62447e-05)
        Pressure : (0.0188363 -1.12e-06 -1.54856e-05)
        Viscous  : (0.0593475 -1.47853e-06 -7.59078e-07)
    Sum of moments
        Total    : (1.30742e-09 4.63193e-06 -1.07529e-06)
        Pressure : (-5.21589e-09 4.4419e-06 -6.66013e-07)
        Viscous  : (6.52331e-09 1.9002e-07 -4.09274e-07)
    writing force and moment files.

Time = 61

smoothSolver:  Solving for Ux, Initial residual = 8.62523e-05, Final residual = 6.75698e-06, No Iterations 2
smoothSolver:  Solving for Uy, Initial residual = 0.000647909, Final residual = 3.74016e-05, No Iterations 2
smoothSolver:  Solving for Uz, Initial residual = 0.000656792, Final residual = 3.7236e-05, No Iterations 2
GAMG:  Solving for p, Initial residual = 0.00207582, Final residual = 0.00010176, No Iterations 2
time step continuity errors : sum local = 8.67287e-06, global = -1.95357e-06, cumulative = 0.00115039
smoothSolver:  Solving for omega, Initial residual = 7.93011e-06, Final residual = 4.51149e-07, No Iterations 2
smoothSolver:  Solving for k, Initial residual = 0.000983368, Final residual = 6.21667e-05, No Iterations 2
ExecutionTime = 80.34 s  ClockTime = 81 s

forces forcesFish write:
    Sum of forces
        Total    : (0.0778927 -1.64342e-06 -1.67094e-05)
        Pressure : (0.0188139 -1.70159e-07 -1.59431e-05)
        Viscous  : (0.0590788 -1.47327e-06 -7.66292e-07)
    Sum of moments
        Total    : (1.24087e-09 4.63598e-06 -9.88597e-07)
        Pressure : (-5.25736e-09 4.44359e-06 -5.81971e-07)
        Viscous  : (6.49823e-09 1.92383e-07 -4.06627e-07)
    writing force and moment files.

Time = 62

smoothSolver:  Solving for Ux, Initial residual = 8.49817e-05, Final residual = 6.627e-06, No Iterations 2
smoothSolver:  Solving for Uy, Initial residual = 0.000634056, Final residual = 3.74634e-05, No Iterations 2
smoothSolver:  Solving for Uz, Initial residual = 0.00063729, Final residual = 3.72058e-05, No Iterations 2
GAMG:  Solving for p, Initial residual = 0.00196929, Final residual = 9.4387e-05, No Iterations 2
time step continuity errors : sum local = 8.0424e-06, global = -1.98765e-06, cumulative = 0.00114841
smoothSolver:  Solving for omega, Initial residual = 7.73838e-06, Final residual = 4.38034e-07, No Iterations 2
smoothSolver:  Solving for k, Initial residual = 0.000940281, Final residual = 5.92479e-05, No Iterations 2
ExecutionTime = 81.57 s  ClockTime = 82 s

forces forcesFish write:
    Sum of forces
        Total    : (0.0776087 -1.50821e-06 -1.6577e-05)
        Pressure : (0.0187934 -3.92412e-08 -1.58043e-05)
        Viscous  : (0.0588154 -1.46897e-06 -7.72617e-07)
    Sum of moments
        Total    : (1.18612e-09 4.5563e-06 -1.12854e-06)
        Pressure : (-5.29804e-09 4.36192e-06 -7.24153e-07)
        Viscous  : (6.48416e-09 1.94382e-07 -4.04384e-07)
    writing force and moment files.

Time = 63

smoothSolver:  Solving for Ux, Initial residual = 8.37158e-05, Final residual = 6.50121e-06, No Iterations 2
smoothSolver:  Solving for Uy, Initial residual = 0.000624259, Final residual = 3.75139e-05, No Iterations 2
smoothSolver:  Solving for Uz, Initial residual = 0.000626608, Final residual = 3.72369e-05, No Iterations 2
GAMG:  Solving for p, Initial residual = 0.0018667, Final residual = 8.87463e-05, No Iterations 2
time step continuity errors : sum local = 7.55976e-06, global = -1.83865e-06, cumulative = 0.00114657
smoothSolver:  Solving for omega, Initial residual = 7.56049e-06, Final residual = 4.25793e-07, No Iterations 2
smoothSolver:  Solving for k, Initial residual = 0.000898675, Final residual = 5.64282e-05, No Iterations 2
ExecutionTime = 82.78 s  ClockTime = 83 s

forces forcesFish write:
    Sum of forces
        Total    : (0.0773312 -2.0625e-06 -1.60024e-05)
        Pressure : (0.0187741 -5.96509e-07 -1.52256e-05)
        Viscous  : (0.0585572 -1.46599e-06 -7.76866e-07)
    Sum of moments
        Total    : (1.14292e-09 4.42648e-06 -1.42516e-06)
        Pressure : (-5.33382e-09 4.23058e-06 -1.02249e-06)
        Viscous  : (6.47674e-09 1.95908e-07 -4.02667e-07)
    writing force and moment files.

Time = 64

[...]

smoothSolver:  Solving for Ux, Initial residual = 6.78551e-07, Final residual = 3.37397e-08, No Iterations 2
smoothSolver:  Solving for Uy, Initial residual = 1.62423e-05, Final residual = 1.11447e-06, No Iterations 2
smoothSolver:  Solving for Uz, Initial residual = 1.61953e-05, Final residual = 1.10981e-06, No Iterations 2
GAMG:  Solving for p, Initial residual = 3.82671e-05, Final residual = 2.38008e-06, No Iterations 2
time step continuity errors : sum local = 1.98976e-07, global = -1.07558e-08, cumulative = 0.0011257
smoothSolver:  Solving for omega, Initial residual = 4.94401e-08, Final residual = 9.83604e-09, No Iterations 1
smoothSolver:  Solving for k, Initial residual = 2.18127e-06, Final residual = 1.00063e-07, No Iterations 2
ExecutionTime = 368.01 s  ClockTime = 368 s

forces forcesFish write:
    Sum of forces
        Total    : (0.0648932 -8.49622e-06 -7.75358e-06)
        Pressure : (0.0180431 -7.20233e-06 -7.3929e-06)
        Viscous  : (0.0468501 -1.29389e-06 -3.60673e-07)
    Sum of moments
        Total    : (4.20687e-10 2.22118e-06 -3.29181e-06)
        Pressure : (-4.8673e-09 2.13925e-06 -3.00461e-06)
        Viscous  : (5.28799e-09 8.19282e-08 -2.87204e-07)
    writing force and moment files.

Time = 288

smoothSolver:  Solving for Ux, Initial residual = 6.55494e-07, Final residual = 3.25506e-08, No Iterations 2
smoothSolver:  Solving for Uy, Initial residual = 1.57247e-05, Final residual = 1.0789e-06, No Iterations 2
smoothSolver:  Solving for Uz, Initial residual = 1.56788e-05, Final residual = 1.07435e-06, No Iterations 2
GAMG:  Solving for p, Initial residual = 3.71465e-05, Final residual = 2.30546e-06, No Iterations 2
time step continuity errors : sum local = 1.92735e-07, global = -1.02423e-08, cumulative = 0.00112569
smoothSolver:  Solving for omega, Initial residual = 4.87564e-08, Final residual = 9.72574e-09, No Iterations 1
smoothSolver:  Solving for k, Initial residual = 2.11568e-06, Final residual = 9.67307e-08, No Iterations 2
ExecutionTime = 369.22 s  ClockTime = 369 s

forces forcesFish write:
    Sum of forces
        Total    : (0.0648925 -8.49473e-06 -7.75219e-06)
        Pressure : (0.0180432 -7.20083e-06 -7.39174e-06)
        Viscous  : (0.0468493 -1.2939e-06 -3.60449e-07)
    Sum of moments
        Total    : (4.20332e-10 2.22072e-06 -3.29126e-06)
        Pressure : (-4.86776e-09 2.13888e-06 -3.00405e-06)
        Viscous  : (5.28809e-09 8.18394e-08 -2.87204e-07)
    writing force and moment files.

Time = 289

smoothSolver:  Solving for Ux, Initial residual = 6.33142e-07, Final residual = 3.14007e-08, No Iterations 2
smoothSolver:  Solving for Uy, Initial residual = 1.52218e-05, Final residual = 1.04427e-06, No Iterations 2
smoothSolver:  Solving for Uz, Initial residual = 1.51771e-05, Final residual = 1.03984e-06, No Iterations 2
GAMG:  Solving for p, Initial residual = 3.60511e-05, Final residual = 2.23274e-06, No Iterations 2
time step continuity errors : sum local = 1.86654e-07, global = -9.76124e-09, cumulative = 0.00112568
smoothSolver:  Solving for omega, Initial residual = 4.783e-08, Final residual = 9.56184e-09, No Iterations 1
smoothSolver:  Solving for k, Initial residual = 2.05024e-06, Final residual = 9.34232e-08, No Iterations 2
ExecutionTime = 370.46 s  ClockTime = 371 s

forces forcesFish write:
    Sum of forces
        Total    : (0.0648918 -8.49314e-06 -7.75076e-06)
        Pressure : (0.0180433 -7.19923e-06 -7.39053e-06)
        Viscous  : (0.0468485 -1.29391e-06 -3.60236e-07)
    Sum of moments
        Total    : (4.19981e-10 2.22025e-06 -3.29066e-06)
        Pressure : (-4.86821e-09 2.1385e-06 -3.00346e-06)
        Viscous  : (5.28819e-09 8.17545e-08 -2.87204e-07)
    writing force and moment files.

Time = 290

smoothSolver:  Solving for Ux, Initial residual = 6.11477e-07, Final residual = 3.02887e-08, No Iterations 2
smoothSolver:  Solving for Uy, Initial residual = 1.47332e-05, Final residual = 1.01059e-06, No Iterations 2
smoothSolver:  Solving for Uz, Initial residual = 1.46897e-05, Final residual = 1.00626e-06, No Iterations 2
GAMG:  Solving for p, Initial residual = 3.49845e-05, Final residual = 2.16193e-06, No Iterations 2
time step continuity errors : sum local = 1.80732e-07, global = -9.31806e-09, cumulative = 0.00112567
smoothSolver:  Solving for omega, Initial residual = 4.6757e-08, Final residual = 9.36451e-09, No Iterations 1
smoothSolver:  Solving for k, Initial residual = 1.98512e-06, Final residual = 9.01564e-08, No Iterations 2
ExecutionTime = 371.7 s  ClockTime = 372 s

forces forcesFish write:
    Sum of forces
        Total    : (0.0648911 -8.49148e-06 -7.74928e-06)
        Pressure : (0.0180435 -7.19756e-06 -7.38925e-06)
        Viscous  : (0.0468477 -1.29392e-06 -3.60031e-07)
    Sum of moments
        Total    : (4.19634e-10 2.21975e-06 -3.29005e-06)
        Pressure : (-4.86865e-09 2.13808e-06 -3.00284e-06)
        Viscous  : (5.28829e-09 8.16734e-08 -2.87204e-07)
    writing force and moment files.

Time = 291

smoothSolver:  Solving for Ux, Initial residual = 5.90485e-07, Final residual = 2.92134e-08, No Iterations 2
smoothSolver:  Solving for Uy, Initial residual = 1.42585e-05, Final residual = 9.77832e-07, No Iterations 2
smoothSolver:  Solving for Uz, Initial residual = 1.4216e-05, Final residual = 9.73608e-07, No Iterations 2
GAMG:  Solving for p, Initial residual = 3.39483e-05, Final residual = 2.09305e-06, No Iterations 2
time step continuity errors : sum local = 1.74972e-07, global = -8.91628e-09, cumulative = 0.00112567
smoothSolver:  Solving for omega, Initial residual = 4.55967e-08, Final residual = 9.14677e-09, No Iterations 1
smoothSolver:  Solving for k, Initial residual = 1.92045e-06, Final residual = 8.69385e-08, No Iterations 2
ExecutionTime = 372.94 s  ClockTime = 373 s

forces forcesFish write:
    Sum of forces
        Total    : (0.0648905 -8.48976e-06 -7.74775e-06)
        Pressure : (0.0180436 -7.19583e-06 -7.38791e-06)
        Viscous  : (0.0468469 -1.29392e-06 -3.59834e-07)
    Sum of moments
        Total    : (4.19292e-10 2.21924e-06 -3.28941e-06)
        Pressure : (-4.86908e-09 2.13764e-06 -3.0022e-06)
        Viscous  : (5.28838e-09 8.15959e-08 -2.87204e-07)
    writing force and moment files.

Time = 292

smoothSolver:  Solving for Ux, Initial residual = 5.70152e-07, Final residual = 2.81737e-08, No Iterations 2
smoothSolver:  Solving for Uy, Initial residual = 1.37971e-05, Final residual = 9.46001e-07, No Iterations 2
smoothSolver:  Solving for Uz, Initial residual = 1.37556e-05, Final residual = 9.41876e-07, No Iterations 2
GAMG:  Solving for p, Initial residual = 3.29418e-05, Final residual = 2.02612e-06, No Iterations 2
time step continuity errors : sum local = 1.69375e-07, global = -8.55722e-09, cumulative = 0.00112566
smoothSolver:  Solving for omega, Initial residual = 4.43883e-08, Final residual = 8.91695e-09, No Iterations 1
smoothSolver:  Solving for k, Initial residual = 1.85634e-06, Final residual = 8.37744e-08, No Iterations 2
ExecutionTime = 374.18 s  ClockTime = 374 s

forces forcesFish write:
    Sum of forces
        Total    : (0.0648898 -8.48799e-06 -7.74616e-06)
        Pressure : (0.0180437 -7.19406e-06 -7.38652e-06)
        Viscous  : (0.0468461 -1.29393e-06 -3.59646e-07)
    Sum of moments
        Total    : (4.18958e-10 2.2187e-06 -3.28875e-06)
        Pressure : (-4.8695e-09 2.13718e-06 -3.00155e-06)
        Viscous  : (5.28846e-09 8.15218e-08 -2.87204e-07)
    writing force and moment files.

Time = 293

smoothSolver:  Solving for Ux, Initial residual = 5.50466e-07, Final residual = 2.71683e-08, No Iterations 2
smoothSolver:  Solving for Uy, Initial residual = 1.33489e-05, Final residual = 9.15078e-07, No Iterations 2
smoothSolver:  Solving for Uz, Initial residual = 1.33083e-05, Final residual = 9.11048e-07, No Iterations 2
GAMG:  Solving for p, Initial residual = 3.19643e-05, Final residual = 1.96113e-06, No Iterations 2
time step continuity errors : sum local = 1.63941e-07, global = -8.23984e-09, cumulative = 0.00112565
smoothSolver:  Solving for omega, Initial residual = 4.31568e-08, Final residual = 8.68052e-09, No Iterations 1
smoothSolver:  Solving for k, Initial residual = 1.79288e-06, Final residual = 8.06683e-08, No Iterations 2
ExecutionTime = 375.44 s  ClockTime = 376 s

forces forcesFish write:
    Sum of forces
        Total    : (0.0648892 -8.48619e-06 -7.74454e-06)
        Pressure : (0.0180438 -7.19225e-06 -7.38507e-06)
        Viscous  : (0.0468454 -1.29393e-06 -3.59466e-07)
    Sum of moments
        Total    : (4.1863e-10 2.21815e-06 -3.28809e-06)
        Pressure : (-4.86991e-09 2.1367e-06 -3.00088e-06)
        Viscous  : (5.28854e-09 8.1451e-08 -2.87203e-07)
    writing force and moment files.

Time = 294

smoothSolver:  Solving for Ux, Initial residual = 5.31413e-07, Final residual = 2.61965e-08, No Iterations 2
smoothSolver:  Solving for Uy, Initial residual = 1.29135e-05, Final residual = 8.85041e-07, No Iterations 2
smoothSolver:  Solving for Uz, Initial residual = 1.28738e-05, Final residual = 8.81102e-07, No Iterations 2
GAMG:  Solving for p, Initial residual = 3.10137e-05, Final residual = 1.89808e-06, No Iterations 2
time step continuity errors : sum local = 1.58669e-07, global = -7.96084e-09, cumulative = 0.00112564
smoothSolver:  Solving for omega, Initial residual = 4.19191e-08, Final residual = 8.44104e-09, No Iterations 1
smoothSolver:  Solving for k, Initial residual = 1.73015e-06, Final residual = 7.7624e-08, No Iterations 2
ExecutionTime = 376.7 s  ClockTime = 377 s

forces forcesFish write:
    Sum of forces
        Total    : (0.0648887 -8.48437e-06 -7.74289e-06)
        Pressure : (0.0180439 -7.19043e-06 -7.3836e-06)
        Viscous  : (0.0468447 -1.29394e-06 -3.59293e-07)
    Sum of moments
        Total    : (4.1831e-10 2.21759e-06 -3.28741e-06)
        Pressure : (-4.87031e-09 2.13621e-06 -3.00021e-06)
        Viscous  : (5.28862e-09 8.13832e-08 -2.87203e-07)
    writing force and moment files.

Time = 295

smoothSolver:  Solving for Ux, Initial residual = 5.12978e-07, Final residual = 2.52571e-08, No Iterations 2
smoothSolver:  Solving for Uy, Initial residual = 1.24906e-05, Final residual = 8.55866e-07, No Iterations 2
smoothSolver:  Solving for Uz, Initial residual = 1.24518e-05, Final residual = 8.52017e-07, No Iterations 2
GAMG:  Solving for p, Initial residual = 3.00882e-05, Final residual = 1.83692e-06, No Iterations 2
time step continuity errors : sum local = 1.53555e-07, global = -7.71504e-09, cumulative = 0.00112563
smoothSolver:  Solving for omega, Initial residual = 4.0686e-08, Final residual = 8.2009e-09, No Iterations 1
smoothSolver:  Solving for k, Initial residual = 1.66823e-06, Final residual = 7.4645e-08, No Iterations 2
ExecutionTime = 377.97 s  ClockTime = 378 s

forces forcesFish write:
    Sum of forces
        Total    : (0.0648881 -8.48254e-06 -7.74122e-06)
        Pressure : (0.018044 -7.18861e-06 -7.3821e-06)
        Viscous  : (0.0468441 -1.29394e-06 -3.59127e-07)
    Sum of moments
        Total    : (4.17996e-10 2.21702e-06 -3.28674e-06)
        Pressure : (-4.87069e-09 2.1357e-06 -2.99954e-06)
        Viscous  : (5.28868e-09 8.13183e-08 -2.87201e-07)
    writing force and moment files.

Time = 296

smoothSolver:  Solving for Ux, Initial residual = 4.95149e-07, Final residual = 2.43493e-08, No Iterations 2
smoothSolver:  Solving for Uy, Initial residual = 1.20799e-05, Final residual = 8.27529e-07, No Iterations 2
smoothSolver:  Solving for Uz, Initial residual = 1.2042e-05, Final residual = 8.23768e-07, No Iterations 2
GAMG:  Solving for p, Initial residual = 2.91865e-05, Final residual = 1.77762e-06, No Iterations 2
time step continuity errors : sum local = 1.48596e-07, global = -7.49589e-09, cumulative = 0.00112563
smoothSolver:  Solving for omega, Initial residual = 3.94649e-08, Final residual = 7.96168e-09, No Iterations 1
smoothSolver:  Solving for k, Initial residual = 1.60723e-06, Final residual = 7.1735e-08, No Iterations 2
ExecutionTime = 379.23 s  ClockTime = 379 s

forces forcesFish write:
    Sum of forces
        Total    : (0.0648875 -8.48072e-06 -7.73955e-06)
        Pressure : (0.0180441 -7.18678e-06 -7.38058e-06)
        Viscous  : (0.0468434 -1.29394e-06 -3.58968e-07)
    Sum of moments
        Total    : (4.17688e-10 2.21645e-06 -3.28607e-06)
        Pressure : (-4.87106e-09 2.13519e-06 -2.99887e-06)
        Viscous  : (5.28875e-09 8.12561e-08 -2.872e-07)
    writing force and moment files.

Time = 297

smoothSolver:  Solving for Ux, Initial residual = 4.7791e-07, Final residual = 2.34722e-08, No Iterations 2
smoothSolver:  Solving for Uy, Initial residual = 1.16811e-05, Final residual = 8.00006e-07, No Iterations 2
smoothSolver:  Solving for Uz, Initial residual = 1.16441e-05, Final residual = 7.96334e-07, No Iterations 2
GAMG:  Solving for p, Initial residual = 2.83079e-05, Final residual = 1.7201e-06, No Iterations 2
time step continuity errors : sum local = 1.43787e-07, global = -7.29609e-09, cumulative = 0.00112562
smoothSolver:  Solving for omega, Initial residual = 3.82605e-08, Final residual = 7.72448e-09, No Iterations 1
smoothSolver:  Solving for k, Initial residual = 1.54728e-06, Final residual = 6.8898e-08, No Iterations 2
ExecutionTime = 380.48 s  ClockTime = 381 s

forces forcesFish write:
    Sum of forces
        Total    : (0.064887 -8.47891e-06 -7.73787e-06)
        Pressure : (0.0180442 -7.18497e-06 -7.37906e-06)
        Viscous  : (0.0468428 -1.29394e-06 -3.58816e-07)
    Sum of moments
        Total    : (4.17387e-10 2.21587e-06 -3.2854e-06)
        Pressure : (-4.87142e-09 2.13467e-06 -2.9982e-06)
        Viscous  : (5.28881e-09 8.11966e-08 -2.87198e-07)
    writing force and moment files.

Time = 298

smoothSolver:  Solving for Ux, Initial residual = 4.61244e-07, Final residual = 2.2625e-08, No Iterations 2
smoothSolver:  Solving for Uy, Initial residual = 1.12938e-05, Final residual = 7.73276e-07, No Iterations 2
smoothSolver:  Solving for Uz, Initial residual = 1.12576e-05, Final residual = 7.69692e-07, No Iterations 2
GAMG:  Solving for p, Initial residual = 2.74511e-05, Final residual = 1.6643e-06, No Iterations 2
time step continuity errors : sum local = 1.39122e-07, global = -7.10821e-09, cumulative = 0.00112561
smoothSolver:  Solving for omega, Initial residual = 3.7076e-08, Final residual = 7.49009e-09, No Iterations 1
smoothSolver:  Solving for k, Initial residual = 1.48851e-06, Final residual = 6.6137e-08, No Iterations 2
ExecutionTime = 381.73 s  ClockTime = 382 s

forces forcesFish write:
    Sum of forces
        Total    : (0.0648865 -8.47711e-06 -7.7362e-06)
        Pressure : (0.0180443 -7.18318e-06 -7.37753e-06)
        Viscous  : (0.0468422 -1.29393e-06 -3.58669e-07)
    Sum of moments
        Total    : (4.17091e-10 2.21529e-06 -3.28473e-06)
        Pressure : (-4.87177e-09 2.13415e-06 -2.99753e-06)
        Viscous  : (5.28886e-09 8.11396e-08 -2.87196e-07)
    writing force and moment files.

Time = 299

smoothSolver:  Solving for Ux, Initial residual = 4.45136e-07, Final residual = 2.18068e-08, No Iterations 2
smoothSolver:  Solving for Uy, Initial residual = 1.09178e-05, Final residual = 7.47321e-07, No Iterations 2
smoothSolver:  Solving for Uz, Initial residual = 1.08824e-05, Final residual = 7.43824e-07, No Iterations 2
GAMG:  Solving for p, Initial residual = 2.66155e-05, Final residual = 1.61014e-06, No Iterations 2
time step continuity errors : sum local = 1.34593e-07, global = -6.92526e-09, cumulative = 0.0011256
smoothSolver:  Solving for omega, Initial residual = 3.59133e-08, Final residual = 7.25908e-09, No Iterations 1
smoothSolver:  Solving for k, Initial residual = 1.43105e-06, Final residual = 6.34545e-08, No Iterations 2
ExecutionTime = 382.97 s  ClockTime = 383 s

forces forcesFish write:
    Sum of forces
        Total    : (0.064886 -8.47534e-06 -7.73453e-06)
        Pressure : (0.0180444 -7.18141e-06 -7.376e-06)
        Viscous  : (0.0468416 -1.29393e-06 -3.58528e-07)
    Sum of moments
        Total    : (4.168e-10 2.21472e-06 -3.28407e-06)
        Pressure : (-4.87211e-09 2.13363e-06 -2.99688e-06)
        Viscous  : (5.28891e-09 8.1085e-08 -2.87194e-07)
    writing force and moment files.

Time = 300

smoothSolver:  Solving for Ux, Initial residual = 4.29569e-07, Final residual = 2.10167e-08, No Iterations 2
smoothSolver:  Solving for Uy, Initial residual = 1.05528e-05, Final residual = 7.22126e-07, No Iterations 2
smoothSolver:  Solving for Uz, Initial residual = 1.05182e-05, Final residual = 7.18715e-07, No Iterations 2
GAMG:  Solving for p, Initial residual = 2.58001e-05, Final residual = 1.55754e-06, No Iterations 2
time step continuity errors : sum local = 1.30195e-07, global = -6.74107e-09, cumulative = 0.0011256
smoothSolver:  Solving for omega, Initial residual = 3.4774e-08, Final residual = 7.0319e-09, No Iterations 1
smoothSolver:  Solving for k, Initial residual = 1.37504e-06, Final residual = 6.08523e-08, No Iterations 2
ExecutionTime = 385.8 s  ClockTime = 386 s

forces forcesFish write:
    Sum of forces
        Total    : (0.0648855 -8.47358e-06 -7.73286e-06)
        Pressure : (0.0180445 -7.17966e-06 -7.37447e-06)
        Viscous  : (0.0468411 -1.29393e-06 -3.58393e-07)
    Sum of moments
        Total    : (4.16515e-10 2.21414e-06 -3.28342e-06)
        Pressure : (-4.87244e-09 2.13311e-06 -2.99623e-06)
        Viscous  : (5.28895e-09 8.10327e-08 -2.87191e-07)
    writing force and moment files.

Time = 301

smoothSolver:  Solving for Ux, Initial residual = 4.14526e-07, Final residual = 2.0254e-08, No Iterations 2
smoothSolver:  Solving for Uy, Initial residual = 1.01985e-05, Final residual = 6.97677e-07, No Iterations 2
smoothSolver:  Solving for Uz, Initial residual = 1.01647e-05, Final residual = 6.94351e-07, No Iterations 2
GAMG:  Solving for p, Initial residual = 2.50047e-05, Final residual = 1.50641e-06, No Iterations 2
time step continuity errors : sum local = 1.2592e-07, global = -6.5507e-09, cumulative = 0.00112559
smoothSolver:  Solving for omega, Initial residual = 3.36589e-08, Final residual = 6.80888e-09, No Iterations 1
smoothSolver:  Solving for k, Initial residual = 1.32057e-06, Final residual = 5.83318e-08, No Iterations 2
ExecutionTime = 387.07 s  ClockTime = 387 s

forces forcesFish write:
    Sum of forces
        Total    : (0.0648851 -8.47186e-06 -7.73121e-06)
        Pressure : (0.0180446 -7.17794e-06 -7.37295e-06)
        Viscous  : (0.0468405 -1.29392e-06 -3.58263e-07)
    Sum of moments
        Total    : (4.16235e-10 2.21357e-06 -3.28278e-06)
        Pressure : (-4.87276e-09 2.13259e-06 -2.9956e-06)
        Viscous  : (5.28899e-09 8.09825e-08 -2.87188e-07)
    writing force and moment files.

Time = 302

smoothSolver:  Solving for Ux, Initial residual = 3.99987e-07, Final residual = 1.95177e-08, No Iterations 2
smoothSolver:  Solving for Uy, Initial residual = 9.85488e-06, Final residual = 6.73964e-07, No Iterations 2
smoothSolver:  Solving for Uz, Initial residual = 9.82184e-06, Final residual = 6.70721e-07, No Iterations 2
GAMG:  Solving for p, Initial residual = 2.42289e-05, Final residual = 1.45667e-06, No Iterations 2
time step continuity errors : sum local = 1.21761e-07, global = -6.35057e-09, cumulative = 0.00112558
smoothSolver:  Solving for omega, Initial residual = 3.25688e-08, Final residual = 6.59028e-09, No Iterations 1
smoothSolver:  Solving for k, Initial residual = 1.26772e-06, Final residual = 5.58941e-08, No Iterations 2
ExecutionTime = 388.63 s  ClockTime = 389 s


SIMPLE solution converged in 302 iterations

forces forcesFish write:
    Sum of forces
        Total    : (0.0648847 -8.47016e-06 -7.72957e-06)
        Pressure : (0.0180447 -7.17624e-06 -7.37143e-06)
        Viscous  : (0.04684 -1.29391e-06 -3.58138e-07)
    Sum of moments
        Total    : (4.1596e-10 2.213e-06 -3.28215e-06)
        Pressure : (-4.87307e-09 2.13207e-06 -2.99497e-06)
        Viscous  : (5.28903e-09 8.09344e-08 -2.87185e-07)
    writing force and moment files.

End

