/*---------------------------------------------------------------------------*\
| =========                 |                                                 |
| \\      /  F ield         | OpenFOAM: The Open Source CFD Toolbox           |
|  \\    /   O peration     | Version:  2512                                  |
|   \\  /    A nd           | Website:  www.openfoam.com                      |
|    \\/     M anipulation  |                                                 |
\*---------------------------------------------------------------------------*/
Build  : _bd2b6720-20260127 OPENFOAM=2512 version=2512
Arch   : "LSB;label=32;scalar=64"
Exec   : simpleFoam
Date   : Mar 27 2026
Time   : 17:11:40
Host   : mathias-laptop
PID    : 210165
I/O    : uncollated
Case   : /home/mat/OpenFOAM/mat-run/speed_sweep_runs/U_0p6
nProcs : 1
trapFpe: Floating point exception trapping enabled (FOAM_SIGFPE).
memory pool : not available
fileModificationChecking : Monitoring run-time modified files using timeStampMaster (fileModificationSkew 5, maxFileModificationPolls 20)
allowSystemOperations : Allowing user-supplied system call operations

// * * * * * * * * * * * * * * * * * * * * * * * * * * * * * * * * * * * * * //
Create time

Create mesh for time = 0


SIMPLE: convergence criteria
    field p	 tolerance 0.0001
    field U	 tolerance 1e-05
    field "(k|omega)"	 tolerance 1e-05

Reading field p

Reading field U

Reading/calculating face flux field phi

Selecting incompressible transport model Newtonian
Selecting turbulence model type RAS
Selecting RAS turbulence model kOmegaSST
Selecting patchDistMethod meshWave
RAS
{
    RASModel        kOmegaSST;
    turbulence      on;
    printCoeffs     on;
    alphaK1         0.85;
    alphaK2         1;
    alphaOmega1     0.5;
    alphaOmega2     0.856;
    gamma1          0.555556;
    gamma2          0.44;
    beta1           0.075;
    beta2           0.0828;
    betaStar        0.09;
    a1              0.31;
    b1              1;
    c1              10;
    F3              false;
    decayControl    false;
    kInf            0;
    omegaInf        0;
}

No MRF models present

No finite volume options present

Starting time loop

forces forcesFish:
    rho: rhoInf
    Freestream density (rhoInf) set to 1000
    Not including porosity effects

Time = 1

smoothSolver:  Solving for Ux, Initial residual = 1, Final residual = 0.0563919, No Iterations 2
smoothSolver:  Solving for Uy, Initial residual = 1, Final residual = 0.0689887, No Iterations 2
smoothSolver:  Solving for Uz, Initial residual = 1, Final residual = 0.0540876, No Iterations 2
GAMG:  Solving for p, Initial residual = 1, Final residual = 0.0525871, No Iterations 5
time step continuity errors : sum local = 4.28688e-05, global = -6.63129e-06, cumulative = -6.63129e-06
smoothSolver:  Solving for omega, Initial residual = 0.00910092, Final residual = 0.000433778, No Iterations 1
bounding omega, min: -10.9241 max: 11363.5 average: 124.89
smoothSolver:  Solving for k, Initial residual = 1, Final residual = 0.0439907, No Iterations 1
ExecutionTime = 3.5 s  ClockTime = 3 s

forces forcesFish write:
    Sum of forces
        Total    : (8.49132 -0.147192 -0.0389991)
        Pressure : (8.21786 -0.147077 -0.0389609)
        Viscous  : (0.273463 -0.000114817 -3.82258e-05)
    Sum of moments
        Total    : (0.00108968 0.00981481 0.112972)
        Pressure : (0.00108778 0.00983384 0.111439)
        Viscous  : (1.89636e-06 -1.90306e-05 0.00153231)
    writing force and moment files.

Time = 2

smoothSolver:  Solving for Ux, Initial residual = 0.0201436, Final residual = 0.00125993, No Iterations 2
smoothSolver:  Solving for Uy, Initial residual = 0.291051, Final residual = 0.0222704, No Iterations 2
smoothSolver:  Solving for Uz, Initial residual = 0.326375, Final residual = 0.0256361, No Iterations 2
GAMG:  Solving for p, Initial residual = 0.107711, Final residual = 0.00888472, No Iterations 3
time step continuity errors : sum local = 8.45453e-05, global = -5.87542e-06, cumulative = -1.25067e-05
smoothSolver:  Solving for omega, Initial residual = 0.00518588, Final residual = 0.000240989, No Iterations 1
smoothSolver:  Solving for k, Initial residual = 0.359874, Final residual = 0.0167683, No Iterations 1
ExecutionTime = 4.4 s  ClockTime = 4 s

forces forcesFish write:
    Sum of forces
        Total    : (10.8351 0.0190903 -0.055882)
        Pressure : (10.5792 0.019311 -0.0559098)
        Viscous  : (0.25588 -0.000220705 2.77755e-05)
    Sum of moments
        Total    : (0.00159314 0.0136928 0.176994)
        Pressure : (0.00159209 0.0137396 0.175708)
        Viscous  : (1.05472e-06 -4.68288e-05 0.00128604)
    writing force and moment files.

Time = 3

smoothSolver:  Solving for Ux, Initial residual = 0.00638258, Final residual = 0.000401061, No Iterations 2
smoothSolver:  Solving for Uy, Initial residual = 0.184455, Final residual = 0.013988, No Iterations 2
smoothSolver:  Solving for Uz, Initial residual = 0.210176, Final residual = 0.0163501, No Iterations 2
GAMG:  Solving for p, Initial residual = 0.39895, Final residual = 0.0375254, No Iterations 2
time step continuity errors : sum local = 0.000145305, global = -6.78315e-06, cumulative = -1.92899e-05
smoothSolver:  Solving for omega, Initial residual = 0.00346772, Final residual = 0.000173711, No Iterations 1
smoothSolver:  Solving for k, Initial residual = 0.204287, Final residual = 0.00996414, No Iterations 1
ExecutionTime = 5.3 s  ClockTime = 5 s

forces forcesFish write:
    Sum of forces
        Total    : (10.124 0.129146 -0.0501903)
        Pressure : (9.88404 0.129258 -0.0503028)
        Viscous  : (0.23993 -0.000111557 0.000112444)
    Sum of moments
        Total    : (0.00153726 0.0133435 0.182908)
        Pressure : (0.00153756 0.0134216 0.181865)
        Viscous  : (-3.05918e-07 -7.80452e-05 0.00104326)
    writing force and moment files.

Time = 4

smoothSolver:  Solving for Ux, Initial residual = 0.00345512, Final residual = 0.000211766, No Iterations 2
smoothSolver:  Solving for Uy, Initial residual = 0.129518, Final residual = 0.00966409, No Iterations 2
smoothSolver:  Solving for Uz, Initial residual = 0.134977, Final residual = 0.0103229, No Iterations 2
GAMG:  Solving for p, Initial residual = 0.186302, Final residual = 0.0075926, No Iterations 3
time step continuity errors : sum local = 8.72527e-05, global = -5.56753e-06, cumulative = -2.48574e-05
smoothSolver:  Solving for omega, Initial residual = 0.00248907, Final residual = 0.000132272, No Iterations 1
smoothSolver:  Solving for k, Initial residual = 0.132788, Final residual = 0.00670737, No Iterations 1
ExecutionTime = 6.3 s  ClockTime = 6 s

forces forcesFish write:
    Sum of forces
        Total    : (7.63519 0.21536 -0.0342401)
        Pressure : (7.40674 0.215362 -0.0344279)
        Viscous  : (0.228446 -2.29933e-06 0.000187878)
    Sum of moments
        Total    : (0.00124285 0.0100936 0.152983)
        Pressure : (0.00124447 0.0101967 0.152115)
        Viscous  : (-1.62263e-06 -0.000103125 0.000867825)
    writing force and moment files.

Time = 5

smoothSolver:  Solving for Ux, Initial residual = 0.00207871, Final residual = 0.0001192, No Iterations 2
smoothSolver:  Solving for Uy, Initial residual = 0.0772867, Final residual = 0.0056101, No Iterations 2
smoothSolver:  Solving for Uz, Initial residual = 0.0815352, Final residual = 0.00604336, No Iterations 2
GAMG:  Solving for p, Initial residual = 0.0857449, Final residual = 0.0041908, No Iterations 3
time step continuity errors : sum local = 0.000106775, global = -3.10735e-06, cumulative = -2.79647e-05
smoothSolver:  Solving for omega, Initial residual = 0.00186676, Final residual = 0.000103687, No Iterations 1
smoothSolver:  Solving for k, Initial residual = 0.0936864, Final residual = 0.00486514, No Iterations 1
ExecutionTime = 7.22 s  ClockTime = 7 s

forces forcesFish write:
    Sum of forces
        Total    : (4.56691 0.258249 -0.015186)
        Pressure : (4.34583 0.25804 -0.0154364)
        Viscous  : (0.221085 0.000209335 0.000250384)
    Sum of moments
        Total    : (0.000854684 0.00572106 0.103038)
        Pressure : (0.00085734 0.00584265 0.102248)
        Viscous  : (-2.65607e-06 -0.000121589 0.000789864)
    writing force and moment files.

Time = 6

smoothSolver:  Solving for Ux, Initial residual = 0.00138798, Final residual = 6.22952e-05, No Iterations 2
smoothSolver:  Solving for Uy, Initial residual = 0.0411128, Final residual = 0.00245025, No Iterations 2
smoothSolver:  Solving for Uz, Initial residual = 0.045045, Final residual = 0.00277493, No Iterations 2
GAMG:  Solving for p, Initial residual = 0.0466843, Final residual = 0.0026448, No Iterations 3
time step continuity errors : sum local = 0.000103168, global = 5.67771e-07, cumulative = -2.7397e-05
smoothSolver:  Solving for omega, Initial residual = 0.00144402, Final residual = 8.26864e-05, No Iterations 1
smoothSolver:  Solving for k, Initial residual = 0.0699983, Final residual = 0.00372196, No Iterations 1
ExecutionTime = 8.14 s  ClockTime = 8 s

forces forcesFish write:
    Sum of forces
        Total    : (1.77723 0.261448 -0.000967046)
        Pressure : (1.55977 0.261046 -0.00126348)
        Viscous  : (0.217459 0.000402009 0.000296434)
    Sum of moments
        Total    : (0.000515573 0.00186834 0.0500888)
        Pressure : (0.000518933 0.00200138 0.0492983)
        Viscous  : (-3.36002e-06 -0.000133048 0.000790535)
    writing force and moment files.

Time = 7

smoothSolver:  Solving for Ux, Initial residual = 0.00117302, Final residual = 3.80734e-05, No Iterations 2
smoothSolver:  Solving for Uy, Initial residual = 0.0321385, Final residual = 0.00139897, No Iterations 2
smoothSolver:  Solving for Uz, Initial residual = 0.0373587, Final residual = 0.00150652, No Iterations 2
GAMG:  Solving for p, Initial residual = 0.0292272, Final residual = 0.00165885, No Iterations 3
time step continuity errors : sum local = 8.19364e-05, global = 4.31093e-06, cumulative = -2.3086e-05
smoothSolver:  Solving for omega, Initial residual = 0.00114618, Final residual = 6.70298e-05, No Iterations 1
smoothSolver:  Solving for k, Initial residual = 0.0546697, Final residual = 0.00297149, No Iterations 1
ExecutionTime = 9.06 s  ClockTime = 9 s

forces forcesFish write:
    Sum of forces
        Total    : (-0.236163 0.234611 0.00456845)
        Pressure : (-0.452719 0.234146 0.00423852)
        Viscous  : (0.216555 0.000465657 0.000329925)
    Sum of moments
        Total    : (0.000299235 -0.000519958 0.00683763)
        Pressure : (0.000303145 -0.000380726 0.00599798)
        Viscous  : (-3.90937e-06 -0.000139232 0.000839645)
    writing force and moment files.

Time = 8

smoothSolver:  Solving for Ux, Initial residual = 0.00118007, Final residual = 4.32672e-05, No Iterations 2
smoothSolver:  Solving for Uy, Initial residual = 0.0338595, Final residual = 0.00188589, No Iterations 2
smoothSolver:  Solving for Uz, Initial residual = 0.0470878, Final residual = 0.00263237, No Iterations 2
GAMG:  Solving for p, Initial residual = 0.0242681, Final residual = 0.00233352, No Iterations 2
time step continuity errors : sum local = 0.000128561, global = 7.37815e-06, cumulative = -1.57079e-05
smoothSolver:  Solving for omega, Initial residual = 0.000930325, Final residual = 5.53546e-05, No Iterations 1
smoothSolver:  Solving for k, Initial residual = 0.0442192, Final residual = 0.00245566, No Iterations 1
ExecutionTime = 9.93 s  ClockTime = 10 s

forces forcesFish write:
    Sum of forces
        Total    : (-1.23239 0.196492 0.00526858)
        Pressure : (-1.44952 0.196107 0.00492237)
        Viscous  : (0.217133 0.000385003 0.000346205)
    Sum of moments
        Total    : (0.000177113 -0.00152056 -0.0173656)
        Pressure : (0.000181439 -0.00138007 -0.0182745)
        Viscous  : (-4.32607e-06 -0.000140491 0.000908854)
    writing force and moment files.

Time = 9

smoothSolver:  Solving for Ux, Initial residual = 0.0012579, Final residual = 5.30999e-05, No Iterations 2
smoothSolver:  Solving for Uy, Initial residual = 0.0302571, Final residual = 0.00181387, No Iterations 2
smoothSolver:  Solving for Uz, Initial residual = 0.0517989, Final residual = 0.00315839, No Iterations 2
GAMG:  Solving for p, Initial residual = 0.027262, Final residual = 0.00206688, No Iterations 2
time step continuity errors : sum local = 0.000115411, global = 1.12625e-05, cumulative = -4.44538e-06
smoothSolver:  Solving for omega, Initial residual = 0.000768474, Final residual = 4.64603e-05, No Iterations 1
smoothSolver:  Solving for k, Initial residual = 0.0367682, Final residual = 0.00208402, No Iterations 1
ExecutionTime = 10.88 s  ClockTime = 11 s

forces forcesFish write:
    Sum of forces
        Total    : (-1.44321 0.152595 -0.00150507)
        Pressure : (-1.66119 0.152348 -0.00184964)
        Viscous  : (0.217982 0.000247313 0.000344578)
    Sum of moments
        Total    : (0.000192037 -0.00112646 -0.0258676)
        Pressure : (0.000196646 -0.000988354 -0.0268481)
        Viscous  : (-4.60867e-06 -0.000138104 0.000980506)
    writing force and moment files.

Time = 10

smoothSolver:  Solving for Ux, Initial residual = 0.00129979, Final residual = 5.68663e-05, No Iterations 2
smoothSolver:  Solving for Uy, Initial residual = 0.0236182, Final residual = 0.00140527, No Iterations 2
smoothSolver:  Solving for Uz, Initial residual = 0.0490386, Final residual = 0.00298234, No Iterations 2
GAMG:  Solving for p, Initial residual = 0.032178, Final residual = 0.00248529, No Iterations 2
time step continuity errors : sum local = 0.000131938, global = 1.48234e-05, cumulative = 1.0378e-05
smoothSolver:  Solving for omega, Initial residual = 0.000643722, Final residual = 3.96023e-05, No Iterations 1
smoothSolver:  Solving for k, Initial residual = 0.0312305, Final residual = 0.00180364, No Iterations 1
ExecutionTime = 11.82 s  ClockTime = 12 s

forces forcesFish write:
    Sum of forces
        Total    : (-1.13151 0.104635 -0.0122239)
        Pressure : (-1.3497 0.104514 -0.0125501)
        Viscous  : (0.218183 0.000121133 0.000326242)
    Sum of moments
        Total    : (0.000288818 9.80106e-05 -0.0232109)
        Pressure : (0.000293592 0.000230449 -0.0242527)
        Viscous  : (-4.77375e-06 -0.000132439 0.0010418)
    writing force and moment files.

Time = 11

smoothSolver:  Solving for Ux, Initial residual = 0.00125792, Final residual = 5.29463e-05, No Iterations 2
smoothSolver:  Solving for Uy, Initial residual = 0.0171198, Final residual = 0.000946766, No Iterations 2
smoothSolver:  Solving for Uz, Initial residual = 0.0417071, Final residual = 0.00237437, No Iterations 2
GAMG:  Solving for p, Initial residual = 0.0345312, Final residual = 0.00287, No Iterations 2
time step continuity errors : sum local = 0.000138028, global = 1.6826e-05, cumulative = 2.7204e-05
smoothSolver:  Solving for omega, Initial residual = 0.000545234, Final residual = 3.41534e-05, No Iterations 1
smoothSolver:  Solving for k, Initial residual = 0.0269646, Final residual = 0.00158401, No Iterations 1
ExecutionTime = 12.72 s  ClockTime = 13 s

forces forcesFish write:
    Sum of forces
        Total    : (-0.535715 0.053055 -0.0228589)
        Pressure : (-0.752971 0.053001 -0.0231588)
        Viscous  : (0.217256 5.39948e-05 0.000299822)
    Sum of moments
        Total    : (0.00041503 0.00151759 -0.0145681)
        Pressure : (0.000419902 0.00164262 -0.0156558)
        Viscous  : (-4.87174e-06 -0.000125036 0.00108761)
    writing force and moment files.

Time = 12

smoothSolver:  Solving for Ux, Initial residual = 0.00113156, Final residual = 4.27628e-05, No Iterations 2
smoothSolver:  Solving for Uy, Initial residual = 0.0125173, Final residual = 0.000557705, No Iterations 2
smoothSolver:  Solving for Uz, Initial residual = 0.0336843, Final residual = 0.00156122, No Iterations 2
GAMG:  Solving for p, Initial residual = 0.0351611, Final residual = 0.00308487, No Iterations 2
time step continuity errors : sum local = 0.000129086, global = 1.72278e-05, cumulative = 4.44318e-05
smoothSolver:  Solving for omega, Initial residual = 0.000465786, Final residual = 2.96397e-05, No Iterations 1
smoothSolver:  Solving for k, Initial residual = 0.0235876, Final residual = 0.00140719, No Iterations 1
ExecutionTime = 13.63 s  ClockTime = 14 s

forces forcesFish write:
    Sum of forces
        Total    : (0.127228 0.00532876 -0.0289724)
        Pressure : (-0.0879528 0.0052847 -0.0292405)
        Viscous  : (0.215181 4.40633e-05 0.00026813)
    Sum of moments
        Total    : (0.00051656 0.00242824 -0.00419182)
        Pressure : (0.000521526 0.00254562 -0.00530879)
        Viscous  : (-4.96592e-06 -0.000117379 0.00111697)
    writing force and moment files.

Time = 13

smoothSolver:  Solving for Ux, Initial residual = 0.000960215, Final residual = 3.06052e-05, No Iterations 2
smoothSolver:  Solving for Uy, Initial residual = 0.0108363, Final residual = 0.000418265, No Iterations 2
smoothSolver:  Solving for Uz, Initial residual = 0.0305882, Final residual = 0.0011521, No Iterations 2
GAMG:  Solving for p, Initial residual = 0.0353753, Final residual = 0.00301339, No Iterations 2
time step continuity errors : sum local = 0.000107773, global = 1.60738e-05, cumulative = 6.05056e-05
smoothSolver:  Solving for omega, Initial residual = 0.000400926, Final residual = 2.58343e-05, No Iterations 1
smoothSolver:  Solving for k, Initial residual = 0.0208264, Final residual = 0.00125958, No Iterations 1
ExecutionTime = 14.48 s  ClockTime = 14 s

forces forcesFish write:
    Sum of forces
        Total    : (0.695044 -0.0291964 -0.0284956)
        Pressure : (0.482809 -0.0292922 -0.0287362)
        Viscous  : (0.212235 9.57395e-05 0.000240646)
    Sum of moments
        Total    : (0.000558742 0.00249956 0.00528677)
        Pressure : (0.000563786 0.00260946 0.00415589)
        Viscous  : (-5.04412e-06 -0.000109902 0.00113088)
    writing force and moment files.

Time = 14

smoothSolver:  Solving for Ux, Initial residual = 0.000810069, Final residual = 2.22816e-05, No Iterations 2
smoothSolver:  Solving for Uy, Initial residual = 0.0109898, Final residual = 0.000470373, No Iterations 2
smoothSolver:  Solving for Uz, Initial residual = 0.0316359, Final residual = 0.00128793, No Iterations 2
GAMG:  Solving for p, Initial residual = 0.0363778, Final residual = 0.00268553, No Iterations 2
time step continuity errors : sum local = 8.33517e-05, global = 1.40641e-05, cumulative = 7.45697e-05
smoothSolver:  Solving for omega, Initial residual = 0.000347167, Final residual = 2.25901e-05, No Iterations 1
smoothSolver:  Solving for k, Initial residual = 0.0185444, Final residual = 0.00113502, No Iterations 1
ExecutionTime = 15.36 s  ClockTime = 15 s

forces forcesFish write:
    Sum of forces
        Total    : (1.07892 -0.0438498 -0.0221703)
        Pressure : (0.870081 -0.044031 -0.0223912)
        Viscous  : (0.208842 0.000181244 0.000220953)
    Sum of moments
        Total    : (0.000535381 0.00183029 0.0126779)
        Pressure : (0.000540489 0.00193413 0.0115452)
        Viscous  : (-5.10791e-06 -0.000103839 0.00113275)
    writing force and moment files.

Time = 15

smoothSolver:  Solving for Ux, Initial residual = 0.000718875, Final residual = 1.84616e-05, No Iterations 2
smoothSolver:  Solving for Uy, Initial residual = 0.0110405, Final residual = 0.000506608, No Iterations 2
smoothSolver:  Solving for Uz, Initial residual = 0.0320087, Final residual = 0.0014528, No Iterations 2
GAMG:  Solving for p, Initial residual = 0.0389071, Final residual = 0.00238802, No Iterations 2
time step continuity errors : sum local = 6.76161e-05, global = 1.16121e-05, cumulative = 8.61817e-05
smoothSolver:  Solving for omega, Initial residual = 0.000302052, Final residual = 1.98148e-05, No Iterations 1
smoothSolver:  Solving for k, Initial residual = 0.0166236, Final residual = 0.00102816, No Iterations 1
ExecutionTime = 16.2 s  ClockTime = 16 s

forces forcesFish write:
    Sum of forces
        Total    : (1.25796 -0.0380047 -0.0130284)
        Pressure : (1.05254 -0.0382795 -0.0132387)
        Viscous  : (0.205421 0.000274893 0.000210388)
    Sum of moments
        Total    : (0.0004662 0.000826471 0.0177447)
        Pressure : (0.000471379 0.000926436 0.0166171)
        Viscous  : (-5.17966e-06 -9.99652e-05 0.00112759)
    writing force and moment files.

Time = 16

smoothSolver:  Solving for Ux, Initial residual = 0.000658186, Final residual = 1.67259e-05, No Iterations 2
smoothSolver:  Solving for Uy, Initial residual = 0.010427, Final residual = 0.000470246, No Iterations 2
smoothSolver:  Solving for Uz, Initial residual = 0.0303644, Final residual = 0.00139656, No Iterations 2
GAMG:  Solving for p, Initial residual = 0.0412784, Final residual = 0.00251338, No Iterations 2
time step continuity errors : sum local = 6.95244e-05, global = 8.606e-06, cumulative = 9.47877e-05
smoothSolver:  Solving for omega, Initial residual = 0.000263874, Final residual = 1.74522e-05, No Iterations 1
smoothSolver:  Solving for k, Initial residual = 0.0149801, Final residual = 0.00093529, No Iterations 1
ExecutionTime = 17.15 s  ClockTime = 17 s

forces forcesFish write:
    Sum of forces
        Total    : (1.27549 -0.0176745 -0.00394994)
        Pressure : (1.07322 -0.0180263 -0.00415873)
        Viscous  : (0.202269 0.000351862 0.000208791)
    Sum of moments
        Total    : (0.000377807 -0.000121144 0.0207975)
        Pressure : (0.000383097 -2.27471e-05 0.0196788)
        Viscous  : (-5.28937e-06 -9.83967e-05 0.00111867)
    writing force and moment files.

Time = 17

smoothSolver:  Solving for Ux, Initial residual = 0.000602179, Final residual = 1.53596e-05, No Iterations 2
smoothSolver:  Solving for Uy, Initial residual = 0.00913611, Final residual = 0.000374896, No Iterations 2
smoothSolver:  Solving for Uz, Initial residual = 0.0267471, Final residual = 0.00114991, No Iterations 2
GAMG:  Solving for p, Initial residual = 0.0399427, Final residual = 0.00251816, No Iterations 2
time step continuity errors : sum local = 7.1668e-05, global = 4.5331e-06, cumulative = 9.93208e-05
smoothSolver:  Solving for omega, Initial residual = 0.000231107, Final residual = 1.5371e-05, No Iterations 1
smoothSolver:  Solving for k, Initial residual = 0.0135743, Final residual = 0.000855041, No Iterations 1
ExecutionTime = 18.08 s  ClockTime = 18 s

forces forcesFish write:
    Sum of forces
        Total    : (1.19744 0.0116389 0.00438378)
        Pressure : (0.997883 0.0112407 0.00417037)
        Viscous  : (0.19956 0.000398213 0.000213404)
    Sum of moments
        Total    : (0.000278218 -0.000908743 0.0225812)
        Pressure : (0.000283644 -0.000810133 0.0214723)
        Viscous  : (-5.42631e-06 -9.86105e-05 0.00110891)
    writing force and moment files.

Time = 18

smoothSolver:  Solving for Ux, Initial residual = 0.000546271, Final residual = 1.4036e-05, No Iterations 2
smoothSolver:  Solving for Uy, Initial residual = 0.00765456, Final residual = 0.000262173, No Iterations 2
smoothSolver:  Solving for Uz, Initial residual = 0.0223859, Final residual = 0.00081038, No Iterations 2
GAMG:  Solving for p, Initial residual = 0.0352286, Final residual = 0.00226824, No Iterations 2
time step continuity errors : sum local = 6.84197e-05, global = 1.26128e-07, cumulative = 9.94469e-05
smoothSolver:  Solving for omega, Initial residual = 0.000202943, Final residual = 1.35402e-05, No Iterations 1
smoothSolver:  Solving for k, Initial residual = 0.0123435, Final residual = 0.000784059, No Iterations 1
ExecutionTime = 19 s  ClockTime = 19 s

forces forcesFish write:
    Sum of forces
        Total    : (1.07498 0.0439907 0.0102285)
        Pressure : (0.877634 0.0435837 0.0100076)
        Viscous  : (0.197342 0.000407005 0.000220836)
    Sum of moments
        Total    : (0.000186979 -0.00129186 0.0237024)
        Pressure : (0.000192553 -0.00119179 0.022603)
        Viscous  : (-5.57467e-06 -0.000100079 0.00109937)
    writing force and moment files.

Time = 19

smoothSolver:  Solving for Ux, Initial residual = 0.00049148, Final residual = 1.26725e-05, No Iterations 2
smoothSolver:  Solving for Uy, Initial residual = 0.00649928, Final residual = 0.000185704, No Iterations 2
smoothSolver:  Solving for Uz, Initial residual = 0.0188516, Final residual = 0.000526859, No Iterations 2
GAMG:  Solving for p, Initial residual = 0.0296304, Final residual = 0.00192336, No Iterations 2
time step continuity errors : sum local = 6.21082e-05, global = -3.56925e-06, cumulative = 9.58777e-05
smoothSolver:  Solving for omega, Initial residual = 0.000178775, Final residual = 1.1962e-05, No Iterations 1
smoothSolver:  Solving for k, Initial residual = 0.0112743, Final residual = 0.000721829, No Iterations 1
ExecutionTime = 19.9 s  ClockTime = 20 s

forces forcesFish write:
    Sum of forces
        Total    : (0.950229 0.0724283 0.0120458)
        Pressure : (0.754665 0.0720495 0.0118173)
        Viscous  : (0.195564 0.000378807 0.000228432)
    Sum of moments
        Total    : (0.000125278 -0.00107765 0.0244577)
        Pressure : (0.000131009 -0.000975476 0.0233671)
        Viscous  : (-5.73187e-06 -0.000102174 0.0010906)
    writing force and moment files.

Time = 20

smoothSolver:  Solving for Ux, Initial residual = 0.000443912, Final residual = 1.13035e-05, No Iterations 2
smoothSolver:  Solving for Uy, Initial residual = 0.00577821, Final residual = 0.000166213, No Iterations 2
smoothSolver:  Solving for Uz, Initial residual = 0.0171113, Final residual = 0.000444075, No Iterations 2
GAMG:  Solving for p, Initial residual = 0.0246717, Final residual = 0.00160057, No Iterations 2
time step continuity errors : sum local = 5.49403e-05, global = -6.78518e-06, cumulative = 8.90925e-05
smoothSolver:  Solving for omega, Initial residual = 0.000157991, Final residual = 1.06185e-05, No Iterations 1
smoothSolver:  Solving for k, Initial residual = 0.0103279, Final residual = 0.000666161, No Iterations 1
ExecutionTime = 20.81 s  ClockTime = 21 s

forces forcesFish write:
    Sum of forces
        Total    : (0.851338 0.0913568 0.00958123)
        Pressure : (0.65722 0.0910367 0.00934717)
        Viscous  : (0.194118 0.000320131 0.000234059)
    Sum of moments
        Total    : (0.000103787 -0.000270261 0.0248699)
        Pressure : (0.000109696 -0.000165958 0.0237877)
        Viscous  : (-5.9097e-06 -0.000104303 0.00108213)
    writing force and moment files.

Time = 21

smoothSolver:  Solving for Ux, Initial residual = 0.000405402, Final residual = 1.03454e-05, No Iterations 2
smoothSolver:  Solving for Uy, Initial residual = 0.00521107, Final residual = 0.000164906, No Iterations 2
smoothSolver:  Solving for Uz, Initial residual = 0.0162022, Final residual = 0.000474581, No Iterations 2
GAMG:  Solving for p, Initial residual = 0.0214146, Final residual = 0.00136208, No Iterations 2
time step continuity errors : sum local = 4.88304e-05, global = -9.34505e-06, cumulative = 7.97475e-05
smoothSolver:  Solving for omega, Initial residual = 0.000140024, Final residual = 9.4816e-06, No Iterations 1
smoothSolver:  Solving for k, Initial residual = 0.00948905, Final residual = 0.000616315, No Iterations 1
ExecutionTime = 21.68 s  ClockTime = 22 s

forces forcesFish write:
    Sum of forces
        Total    : (0.790445 0.0982099 0.00389668)
        Pressure : (0.597567 0.0979655 0.00365901)
        Viscous  : (0.192879 0.000244406 0.00023767)
    Sum of moments
        Total    : (0.000119734 0.000931962 0.0248362)
        Pressure : (0.000125852 0.00103826 0.0237619)
        Viscous  : (-6.11835e-06 -0.000106301 0.00107428)
    writing force and moment files.

Time = 22

smoothSolver:  Solving for Ux, Initial residual = 0.000372969, Final residual = 9.50845e-06, No Iterations 2
smoothSolver:  Solving for Uy, Initial residual = 0.0046331, Final residual = 0.00015322, No Iterations 2
smoothSolver:  Solving for Uz, Initial residual = 0.0150491, Final residual = 0.000482158, No Iterations 2
GAMG:  Solving for p, Initial residual = 0.0199269, Final residual = 0.00124785, No Iterations 2
time step continuity errors : sum local = 4.57604e-05, global = -1.11374e-05, cumulative = 6.861e-05
smoothSolver:  Solving for omega, Initial residual = 0.000124345, Final residual = 8.49786e-06, No Iterations 1
smoothSolver:  Solving for k, Initial residual = 0.00873804, Final residual = 0.000571209, No Iterations 1
ExecutionTime = 22.53 s  ClockTime = 22 s

forces forcesFish write:
    Sum of forces
        Total    : (0.76557 0.0940434 -0.00333467)
        Pressure : (0.573836 0.0938768 -0.00357417)
        Viscous  : (0.191734 0.000166674 0.0002395)
    Sum of moments
        Total    : (0.000161128 0.00225782 0.024327)
        Pressure : (0.000167483 0.0023659 0.0232598)
        Viscous  : (-6.35532e-06 -0.000108079 0.00106728)
    writing force and moment files.

Time = 23

smoothSolver:  Solving for Ux, Initial residual = 0.000346544, Final residual = 8.60434e-06, No Iterations 2
smoothSolver:  Solving for Uy, Initial residual = 0.004027, Final residual = 0.000129701, No Iterations 2
smoothSolver:  Solving for Uz, Initial residual = 0.0135227, Final residual = 0.00043436, No Iterations 2
GAMG:  Solving for p, Initial residual = 0.0191718, Final residual = 0.00117263, No Iterations 2
time step continuity errors : sum local = 4.31995e-05, global = -1.20314e-05, cumulative = 5.65786e-05
smoothSolver:  Solving for omega, Initial residual = 0.000110583, Final residual = 7.6488e-06, No Iterations 1
smoothSolver:  Solving for k, Initial residual = 0.00805978, Final residual = 0.000530017, No Iterations 1
ExecutionTime = 23.36 s  ClockTime = 23 s

forces forcesFish write:
    Sum of forces
        Total    : (0.766055 0.0817019 -0.0109608)
        Pressure : (0.575454 0.0816022 -0.0112014)
        Viscous  : (0.190601 9.97169e-05 0.000240594)
    Sum of moments
        Total    : (0.000217808 0.00353465 0.0233819)
        Pressure : (0.000224415 0.00364444 0.0223206)
        Viscous  : (-6.60703e-06 -0.000109797 0.00106129)
    writing force and moment files.

Time = 24

smoothSolver:  Solving for Ux, Initial residual = 0.000324277, Final residual = 7.66943e-06, No Iterations 2
smoothSolver:  Solving for Uy, Initial residual = 0.00351844, Final residual = 0.000102773, No Iterations 2
smoothSolver:  Solving for Uz, Initial residual = 0.0119012, Final residual = 0.000350404, No Iterations 2
GAMG:  Solving for p, Initial residual = 0.0184491, Final residual = 0.00106983, No Iterations 2
time step continuity errors : sum local = 3.90779e-05, global = -1.2143e-05, cumulative = 4.44357e-05
smoothSolver:  Solving for omega, Initial residual = 9.84328e-05, Final residual = 6.90575e-06, No Iterations 1
smoothSolver:  Solving for k, Initial residual = 0.00744557, Final residual = 0.000492301, No Iterations 1
ExecutionTime = 24.26 s  ClockTime = 24 s

forces forcesFish write:
    Sum of forces
        Total    : (0.78008 0.064257 -0.0179521)
        Pressure : (0.590643 0.0642047 -0.018194)
        Viscous  : (0.189437 5.23106e-05 0.000241902)
    Sum of moments
        Total    : (0.000280428 0.00459901 0.0220249)
        Pressure : (0.000287289 0.00471057 0.0209682)
        Viscous  : (-6.86083e-06 -0.00011156 0.00105671)
    writing force and moment files.

Time = 25

smoothSolver:  Solving for Ux, Initial residual = 0.00030077, Final residual = 6.81725e-06, No Iterations 2
smoothSolver:  Solving for Uy, Initial residual = 0.00322026, Final residual = 8.25051e-05, No Iterations 2
smoothSolver:  Solving for Uz, Initial residual = 0.0105267, Final residual = 0.000265553, No Iterations 2
GAMG:  Solving for p, Initial residual = 0.0175623, Final residual = 0.000964834, No Iterations 2
time step continuity errors : sum local = 3.46358e-05, global = -1.14334e-05, cumulative = 3.30023e-05
smoothSolver:  Solving for omega, Initial residual = 8.76542e-05, Final residual = 6.24465e-06, No Iterations 1
smoothSolver:  Solving for k, Initial residual = 0.00688176, Final residual = 0.000457289, No Iterations 1
ExecutionTime = 25.09 s  ClockTime = 25 s

forces forcesFish write:
    Sum of forces
        Total    : (0.797532 0.0453462 -0.0231798)
        Pressure : (0.609301 0.0453178 -0.0234238)
        Viscous  : (0.18823 2.84216e-05 0.000244005)
    Sum of moments
        Total    : (0.00033723 0.0052758 0.0203906)
        Pressure : (0.000344328 0.00538929 0.0193367)
        Viscous  : (-7.09754e-06 -0.000113484 0.00105386)
    writing force and moment files.

Time = 26

smoothSolver:  Solving for Ux, Initial residual = 0.000279548, Final residual = 6.07362e-06, No Iterations 2
smoothSolver:  Solving for Uy, Initial residual = 0.00306859, Final residual = 7.30565e-05, No Iterations 2
smoothSolver:  Solving for Uz, Initial residual = 0.00965157, Final residual = 0.000213568, No Iterations 2
GAMG:  Solving for p, Initial residual = 0.0163934, Final residual = 0.000871247, No Iterations 2
time step continuity errors : sum local = 3.06081e-05, global = -1.00089e-05, cumulative = 2.29934e-05
smoothSolver:  Solving for omega, Initial residual = 7.80689e-05, Final residual = 5.6535e-06, No Iterations 1
smoothSolver:  Solving for k, Initial residual = 0.00636618, Final residual = 0.000424944, No Iterations 1
ExecutionTime = 25.95 s  ClockTime = 26 s

forces forcesFish write:
    Sum of forces
        Total    : (0.81134 0.0285679 -0.0258766)
        Pressure : (0.62434 0.0285408 -0.026124)
        Viscous  : (0.186999 2.71596e-05 0.000247442)
    Sum of moments
        Total    : (0.000377814 0.00546531 0.018735)
        Pressure : (0.000385117 0.00558085 0.0176822)
        Viscous  : (-7.30286e-06 -0.000115533 0.00105288)
    writing force and moment files.

Time = 27

smoothSolver:  Solving for Ux, Initial residual = 0.000263355, Final residual = 5.43005e-06, No Iterations 2
smoothSolver:  Solving for Uy, Initial residual = 0.00294994, Final residual = 6.95221e-05, No Iterations 2
smoothSolver:  Solving for Uz, Initial residual = 0.00907891, Final residual = 0.000199536, No Iterations 2
GAMG:  Solving for p, Initial residual = 0.0151061, Final residual = 0.000809593, No Iterations 2
time step continuity errors : sum local = 2.78438e-05, global = -8.12912e-06, cumulative = 1.48643e-05
smoothSolver:  Solving for omega, Initial residual = 6.95058e-05, Final residual = 5.12308e-06, No Iterations 1
smoothSolver:  Solving for k, Initial residual = 0.00588647, Final residual = 0.000394532, No Iterations 1
ExecutionTime = 26.89 s  ClockTime = 27 s

forces forcesFish write:
    Sum of forces
        Total    : (0.818079 0.0165369 -0.0259117)
        Pressure : (0.632305 0.0164937 -0.0261632)
        Viscous  : (0.185775 4.31483e-05 0.000251446)
    Sum of moments
        Total    : (0.000396617 0.00518653 0.0173394)
        Pressure : (0.000404087 0.00530395 0.0162859)
        Viscous  : (-7.47053e-06 -0.000117416 0.00105355)
    writing force and moment files.

Time = 28

smoothSolver:  Solving for Ux, Initial residual = 0.000246762, Final residual = 4.91394e-06, No Iterations 2
smoothSolver:  Solving for Uy, Initial residual = 0.0027998, Final residual = 6.66889e-05, No Iterations 2
smoothSolver:  Solving for Uz, Initial residual = 0.00847519, Final residual = 0.000194934, No Iterations 2
GAMG:  Solving for p, Initial residual = 0.0139481, Final residual = 0.000752734, No Iterations 2
time step continuity errors : sum local = 2.54495e-05, global = -6.03844e-06, cumulative = 8.82586e-06
smoothSolver:  Solving for omega, Initial residual = 6.18277e-05, Final residual = 4.64583e-06, No Iterations 1
smoothSolver:  Solving for k, Initial residual = 0.00544397, Final residual = 0.000366221, No Iterations 1
ExecutionTime = 27.73 s  ClockTime = 28 s

forces forcesFish write:
    Sum of forces
        Total    : (0.817504 0.0102517 -0.0238096)
        Pressure : (0.632918 0.0101817 -0.0240657)
        Viscous  : (0.184586 6.99777e-05 0.000256069)
    Sum of moments
        Total    : (0.000394377 0.00457136 0.0163955)
        Pressure : (0.000401975 0.00469062 0.01534)
        Viscous  : (-7.59867e-06 -0.000119258 0.00105549)
    writing force and moment files.

Time = 29

smoothSolver:  Solving for Ux, Initial residual = 0.000229778, Final residual = 4.46994e-06, No Iterations 2
smoothSolver:  Solving for Uy, Initial residual = 0.0025887, Final residual = 6.14828e-05, No Iterations 2
smoothSolver:  Solving for Uz, Initial residual = 0.00772899, Final residual = 0.000182655, No Iterations 2
GAMG:  Solving for p, Initial residual = 0.0130578, Final residual = 0.000725748, No Iterations 2
time step continuity errors : sum local = 2.42741e-05, global = -3.7601e-06, cumulative = 5.06576e-06
smoothSolver:  Solving for omega, Initial residual = 5.49241e-05, Final residual = 4.2148e-06, No Iterations 1
smoothSolver:  Solving for k, Initial residual = 0.0050278, Final residual = 0.000339347, No Iterations 1
ExecutionTime = 28.71 s  ClockTime = 29 s

forces forcesFish write:
    Sum of forces
        Total    : (0.811347 0.00898413 -0.0204691)
        Pressure : (0.627888 0.00888292 -0.0207292)
        Viscous  : (0.18346 0.000101213 0.000260112)
    Sum of moments
        Total    : (0.00037659 0.00380072 0.0159207)
        Pressure : (0.000384274 0.00392147 0.0148625)
        Viscous  : (-7.68419e-06 -0.000120752 0.00105825)
    writing force and moment files.

Time = 30

smoothSolver:  Solving for Ux, Initial residual = 0.000213133, Final residual = 4.07668e-06, No Iterations 2
smoothSolver:  Solving for Uy, Initial residual = 0.00234097, Final residual = 5.39922e-05, No Iterations 2
smoothSolver:  Solving for Uz, Initial residual = 0.00688449, Final residual = 0.000159921, No Iterations 2
GAMG:  Solving for p, Initial residual = 0.0122264, Final residual = 0.00070541, No Iterations 2
time step continuity errors : sum local = 2.34847e-05, global = -1.26419e-06, cumulative = 3.80157e-06
smoothSolver:  Solving for omega, Initial residual = 4.87119e-05, Final residual = 3.82662e-06, No Iterations 1
smoothSolver:  Solving for k, Initial residual = 0.00464016, Final residual = 0.000314124, No Iterations 1
ExecutionTime = 29.69 s  ClockTime = 30 s

forces forcesFish write:
    Sum of forces
        Total    : (0.802105 0.011041 -0.0166641)
        Pressure : (0.619697 0.0109092 -0.0169271)
        Viscous  : (0.182408 0.000131803 0.000262953)
    Sum of moments
        Total    : (0.000348987 0.00301463 0.0157936)
        Pressure : (0.000356726 0.00313647 0.0147322)
        Viscous  : (-7.73893e-06 -0.00012184 0.00106142)
    writing force and moment files.

Time = 31

smoothSolver:  Solving for Ux, Initial residual = 0.000198388, Final residual = 1.97119e-05, No Iterations 1
smoothSolver:  Solving for Uy, Initial residual = 0.00211152, Final residual = 4.68247e-05, No Iterations 2
smoothSolver:  Solving for Uz, Initial residual = 0.00605271, Final residual = 0.000132097, No Iterations 2
GAMG:  Solving for p, Initial residual = 0.0113129, Final residual = 0.000660087, No Iterations 2
time step continuity errors : sum local = 2.19704e-05, global = 1.21097e-06, cumulative = 5.01255e-06
smoothSolver:  Solving for omega, Initial residual = 4.30941e-05, Final residual = 3.46774e-06, No Iterations 1
smoothSolver:  Solving for k, Initial residual = 0.00427396, Final residual = 0.000290145, No Iterations 1
ExecutionTime = 30.54 s  ClockTime = 30 s

forces forcesFish write:
    Sum of forces
        Total    : (0.792944 0.0148684 -0.0129658)
        Pressure : (0.611453 0.0147096 -0.0132304)
        Viscous  : (0.181491 0.000158743 0.000264548)
    Sum of moments
        Total    : (0.000316664 0.00231305 0.0159312)
        Pressure : (0.000324441 0.0024356 0.0148658)
        Viscous  : (-7.77674e-06 -0.000122541 0.00106541)
    writing force and moment files.

Time = 32

smoothSolver:  Solving for Ux, Initial residual = 0.00018923, Final residual = 1.87017e-05, No Iterations 1
smoothSolver:  Solving for Uy, Initial residual = 0.00192142, Final residual = 4.15902e-05, No Iterations 2
smoothSolver:  Solving for Uz, Initial residual = 0.00532576, Final residual = 0.000106255, No Iterations 2
GAMG:  Solving for p, Initial residual = 0.0104178, Final residual = 0.000589503, No Iterations 2
time step continuity errors : sum local = 1.96703e-05, global = 3.09629e-06, cumulative = 8.10884e-06
smoothSolver:  Solving for omega, Initial residual = 3.80662e-05, Final residual = 3.14675e-06, No Iterations 1
smoothSolver:  Solving for k, Initial residual = 0.00392916, Final residual = 0.000267436, No Iterations 1
ExecutionTime = 31.38 s  ClockTime = 31 s

forces forcesFish write:
    Sum of forces
        Total    : (0.785404 0.018834 -0.00982666)
        Pressure : (0.604762 0.0186541 -0.0100916)
        Viscous  : (0.180641 0.00017988 0.000264983)
    Sum of moments
        Total    : (0.000283954 0.00177496 0.0161482)
        Pressure : (0.000291758 0.0018979 0.0150792)
        Viscous  : (-7.80392e-06 -0.000122935 0.00106901)
    writing force and moment files.

Time = 33

smoothSolver:  Solving for Ux, Initial residual = 0.000179889, Final residual = 1.78163e-05, No Iterations 1
smoothSolver:  Solving for Uy, Initial residual = 0.00178626, Final residual = 3.80833e-05, No Iterations 2
smoothSolver:  Solving for Uz, Initial residual = 0.00480653, Final residual = 0.000472313, No Iterations 1
GAMG:  Solving for p, Initial residual = 0.00954169, Final residual = 0.000505538, No Iterations 2
time step continuity errors : sum local = 1.69347e-05, global = 4.30714e-06, cumulative = 1.2416e-05
smoothSolver:  Solving for omega, Initial residual = 3.35636e-05, Final residual = 2.85907e-06, No Iterations 1
smoothSolver:  Solving for k, Initial residual = 0.00360237, Final residual = 0.000245821, No Iterations 1
ExecutionTime = 32.23 s  ClockTime = 32 s

forces forcesFish write:
    Sum of forces
        Total    : (0.780203 0.0216786 -0.0074991)
        Pressure : (0.600353 0.0214831 -0.00776355)
        Viscous  : (0.179851 0.000195593 0.000264449)
    Sum of moments
        Total    : (0.000254726 0.00143443 0.0162949)
        Pressure : (0.000262553 0.00155748 0.0152228)
        Viscous  : (-7.82718e-06 -0.000123056 0.0010721)
    writing force and moment files.

Time = 34

smoothSolver:  Solving for Ux, Initial residual = 0.000167308, Final residual = 3.20738e-06, No Iterations 2
smoothSolver:  Solving for Uy, Initial residual = 0.00168402, Final residual = 3.50367e-05, No Iterations 2
smoothSolver:  Solving for Uz, Initial residual = 0.00453637, Final residual = 0.000439739, No Iterations 1
GAMG:  Solving for p, Initial residual = 0.00880263, Final residual = 0.00042986, No Iterations 2
time step continuity errors : sum local = 1.44586e-05, global = 4.461e-06, cumulative = 1.6877e-05
smoothSolver:  Solving for omega, Initial residual = 2.95772e-05, Final residual = 2.60746e-06, No Iterations 1
smoothSolver:  Solving for k, Initial residual = 0.00329207, Final residual = 0.000225238, No Iterations 1
ExecutionTime = 33.04 s  ClockTime = 33 s

forces forcesFish write:
    Sum of forces
        Total    : (0.776995 0.0223883 -0.00615032)
        Pressure : (0.597922 0.0221805 -0.00641361)
        Viscous  : (0.179074 0.000207821 0.000263282)
    Sum of moments
        Total    : (0.000231939 0.00131506 0.0161653)
        Pressure : (0.00023979 0.00143804 0.0150914)
        Viscous  : (-7.85076e-06 -0.000122983 0.00107397)
    writing force and moment files.

Time = 35

smoothSolver:  Solving for Ux, Initial residual = 0.000147866, Final residual = 3.00235e-06, No Iterations 2
smoothSolver:  Solving for Uy, Initial residual = 0.00159028, Final residual = 3.21893e-05, No Iterations 2
smoothSolver:  Solving for Uz, Initial residual = 0.00427783, Final residual = 0.000416273, No Iterations 1
GAMG:  Solving for p, Initial residual = 0.00813429, Final residual = 0.000385639, No Iterations 2
time step continuity errors : sum local = 1.30209e-05, global = 3.67147e-06, cumulative = 2.05484e-05
smoothSolver:  Solving for omega, Initial residual = 2.60044e-05, Final residual = 2.37888e-06, No Iterations 1
smoothSolver:  Solving for k, Initial residual = 0.00299799, Final residual = 0.000205743, No Iterations 1
ExecutionTime = 33.89 s  ClockTime = 34 s

forces forcesFish write:
    Sum of forces
        Total    : (0.775513 0.0208026 -0.0058961)
        Pressure : (0.597166 0.0205825 -0.00615801)
        Viscous  : (0.178346 0.000220143 0.000261915)
    Sum of moments
        Total    : (0.000218601 0.00142037 0.0157275)
        Pressure : (0.000226478 0.00154316 0.0146515)
        Viscous  : (-7.87721e-06 -0.000122786 0.00107599)
    writing force and moment files.

Time = 36

smoothSolver:  Solving for Ux, Initial residual = 0.000127605, Final residual = 2.79839e-06, No Iterations 2
smoothSolver:  Solving for Uy, Initial residual = 0.00149622, Final residual = 2.96551e-05, No Iterations 2
smoothSolver:  Solving for Uz, Initial residual = 0.0040074, Final residual = 0.000389984, No Iterations 1
GAMG:  Solving for p, Initial residual = 0.00752669, Final residual = 0.000351659, No Iterations 2
time step continuity errors : sum local = 1.19124e-05, global = 3.04636e-06, cumulative = 2.35948e-05
smoothSolver:  Solving for omega, Initial residual = 2.28082e-05, Final residual = 2.17053e-06, No Iterations 1
smoothSolver:  Solving for k, Initial residual = 0.00271776, Final residual = 0.000187216, No Iterations 1
ExecutionTime = 34.71 s  ClockTime = 35 s

forces forcesFish write:
    Sum of forces
        Total    : (0.775069 0.0173815 -0.00665652)
        Pressure : (0.597408 0.0171469 -0.00691685)
        Viscous  : (0.177661 0.000234587 0.000260338)
    Sum of moments
        Total    : (0.000215813 0.0017092 0.0150492)
        Pressure : (0.000223717 0.00183172 0.0139708)
        Viscous  : (-7.90327e-06 -0.000122524 0.00107837)
    writing force and moment files.

Time = 37

smoothSolver:  Solving for Ux, Initial residual = 0.000116792, Final residual = 2.61873e-06, No Iterations 2
smoothSolver:  Solving for Uy, Initial residual = 0.00139787, Final residual = 2.76888e-05, No Iterations 2
smoothSolver:  Solving for Uz, Initial residual = 0.00373287, Final residual = 0.000363677, No Iterations 1
GAMG:  Solving for p, Initial residual = 0.00693509, Final residual = 0.000308771, No Iterations 2
time step continuity errors : sum local = 1.04823e-05, global = 2.94053e-06, cumulative = 2.65353e-05
smoothSolver:  Solving for omega, Initial residual = 1.99673e-05, Final residual = 1.98138e-06, No Iterations 1
smoothSolver:  Solving for k, Initial residual = 0.00245331, Final residual = 0.000169822, No Iterations 1
ExecutionTime = 35.53 s  ClockTime = 35 s

forces forcesFish write:
    Sum of forces
        Total    : (0.775022 0.0130515 -0.00805473)
        Pressure : (0.598008 0.0127994 -0.00831349)
        Viscous  : (0.177014 0.000252134 0.000258761)
    Sum of moments
        Total    : (0.000221377 0.00208983 0.014267)
        Pressure : (0.000229306 0.00221204 0.0131858)
        Viscous  : (-7.92851e-06 -0.000122215 0.00108123)
    writing force and moment files.

Time = 38

smoothSolver:  Solving for Ux, Initial residual = 0.000112299, Final residual = 2.46871e-06, No Iterations 2
smoothSolver:  Solving for Uy, Initial residual = 0.00129055, Final residual = 2.59777e-05, No Iterations 2
smoothSolver:  Solving for Uz, Initial residual = 0.00345476, Final residual = 0.000336594, No Iterations 1
GAMG:  Solving for p, Initial residual = 0.0063715, Final residual = 0.000273923, No Iterations 2
time step continuity errors : sum local = 9.30697e-06, global = 2.71914e-06, cumulative = 2.92545e-05
smoothSolver:  Solving for omega, Initial residual = 1.74612e-05, Final residual = 3.40922e-07, No Iterations 2
smoothSolver:  Solving for k, Initial residual = 0.0022023, Final residual = 0.000153436, No Iterations 1
ExecutionTime = 36.41 s  ClockTime = 36 s

forces forcesFish write:
    Sum of forces
        Total    : (0.774952 0.00870893 -0.00964918)
        Pressure : (0.59855 0.00843578 -0.00990646)
        Viscous  : (0.176402 0.000273148 0.000257283)
    Sum of moments
        Total    : (0.000231706 0.00247172 0.0135034)
        Pressure : (0.000239658 0.00259366 0.0124188)
        Viscous  : (-7.95196e-06 -0.000121933 0.00108453)
    writing force and moment files.

Time = 39

smoothSolver:  Solving for Ux, Initial residual = 0.000109444, Final residual = 2.3311e-06, No Iterations 2
smoothSolver:  Solving for Uy, Initial residual = 0.00118781, Final residual = 2.4443e-05, No Iterations 2
smoothSolver:  Solving for Uz, Initial residual = 0.00317412, Final residual = 0.000309868, No Iterations 1
GAMG:  Solving for p, Initial residual = 0.00585285, Final residual = 0.000259646, No Iterations 2
time step continuity errors : sum local = 8.82017e-06, global = 2.06524e-06, cumulative = 3.13197e-05
smoothSolver:  Solving for omega, Initial residual = 1.49263e-05, Final residual = 3.08217e-07, No Iterations 2
smoothSolver:  Solving for k, Initial residual = 0.001967, Final residual = 0.000138217, No Iterations 1
ExecutionTime = 37.27 s  ClockTime = 37 s

forces forcesFish write:
    Sum of forces
        Total    : (0.774607 0.00489628 -0.0111454)
        Pressure : (0.598784 0.00460016 -0.0114012)
        Viscous  : (0.175823 0.000296123 0.000255866)
    Sum of moments
        Total    : (0.000243915 0.00280128 0.0128228)
        Pressure : (0.000251887 0.00292295 0.0117348)
        Viscous  : (-7.97243e-06 -0.000121664 0.00108799)
    writing force and moment files.

Time = 40

smoothSolver:  Solving for Ux, Initial residual = 0.000106711, Final residual = 2.19991e-06, No Iterations 2
smoothSolver:  Solving for Uy, Initial residual = 0.00109996, Final residual = 2.32243e-05, No Iterations 2
smoothSolver:  Solving for Uz, Initial residual = 0.00291513, Final residual = 0.000286541, No Iterations 1
GAMG:  Solving for p, Initial residual = 0.00539013, Final residual = 0.000257498, No Iterations 2
time step continuity errors : sum local = 8.74225e-06, global = 1.16709e-06, cumulative = 3.24868e-05
smoothSolver:  Solving for omega, Initial residual = 1.27839e-05, Final residual = 2.78149e-07, No Iterations 2
smoothSolver:  Solving for k, Initial residual = 0.00174783, Final residual = 0.000124142, No Iterations 1
ExecutionTime = 38.13 s  ClockTime = 38 s

forces forcesFish write:
    Sum of forces
        Total    : (0.773862 0.00183946 -0.0123934)
        Pressure : (0.598584 0.00152007 -0.012648)
        Viscous  : (0.175279 0.000319392 0.000254528)
    Sum of moments
        Total    : (0.000256093 0.00305469 0.0122459)
        Pressure : (0.000264082 0.00317606 0.0111546)
        Viscous  : (-7.98875e-06 -0.000121369 0.00109134)
    writing force and moment files.

Time = 41

smoothSolver:  Solving for Ux, Initial residual = 0.000101949, Final residual = 2.07061e-06, No Iterations 2
smoothSolver:  Solving for Uy, Initial residual = 0.00103305, Final residual = 2.22275e-05, No Iterations 2
smoothSolver:  Solving for Uz, Initial residual = 0.00270195, Final residual = 0.000268774, No Iterations 1
GAMG:  Solving for p, Initial residual = 0.00496992, Final residual = 0.000258211, No Iterations 2
time step continuity errors : sum local = 8.76211e-06, global = 3.55769e-07, cumulative = 3.28426e-05
smoothSolver:  Solving for omega, Initial residual = 1.09698e-05, Final residual = 2.52068e-07, No Iterations 2
smoothSolver:  Solving for k, Initial residual = 0.00154404, Final residual = 0.000111136, No Iterations 1
ExecutionTime = 39 s  ClockTime = 39 s

forces forcesFish write:
    Sum of forces
        Total    : (0.772711 -0.000423568 -0.0133163)
        Pressure : (0.597944 -0.000764905 -0.0135696)
        Viscous  : (0.174767 0.000341337 0.000253275)
    Sum of moments
        Total    : (0.000266833 0.00322214 0.0117726)
        Pressure : (0.000274829 0.00334321 0.0106782)
        Viscous  : (-7.99665e-06 -0.000121068 0.0010944)
    writing force and moment files.

Time = 42

smoothSolver:  Solving for Ux, Initial residual = 9.56036e-05, Final residual = 1.9446e-06, No Iterations 2
smoothSolver:  Solving for Uy, Initial residual = 0.000989004, Final residual = 2.13319e-05, No Iterations 2
smoothSolver:  Solving for Uz, Initial residual = 0.00255777, Final residual = 5.09925e-05, No Iterations 2
GAMG:  Solving for p, Initial residual = 0.00461982, Final residual = 0.000248638, No Iterations 2
time step continuity errors : sum local = 8.43554e-06, global = -2.73043e-07, cumulative = 3.25695e-05
smoothSolver:  Solving for omega, Initial residual = 9.44621e-06, Final residual = 2.29794e-07, No Iterations 2
smoothSolver:  Solving for k, Initial residual = 0.00135701, Final residual = 9.92753e-05, No Iterations 1
ExecutionTime = 39.86 s  ClockTime = 40 s

forces forcesFish write:
    Sum of forces
        Total    : (0.771393 -0.00195536 -0.0138551)
        Pressure : (0.597104 -0.00231637 -0.0141069)
        Viscous  : (0.17429 0.000361013 0.00025184)
    Sum of moments
        Total    : (0.000274908 0.00329595 0.0113804)
        Pressure : (0.000282904 0.00341662 0.0102834)
        Viscous  : (-7.99563e-06 -0.00012067 0.00109705)
    writing force and moment files.

Time = 43

smoothSolver:  Solving for Ux, Initial residual = 8.84892e-05, Final residual = 1.82491e-06, No Iterations 2
smoothSolver:  Solving for Uy, Initial residual = 0.000958444, Final residual = 2.05816e-05, No Iterations 2
smoothSolver:  Solving for Uz, Initial residual = 0.00239766, Final residual = 0.000238449, No Iterations 1
GAMG:  Solving for p, Initial residual = 0.00428032, Final residual = 0.000227431, No Iterations 2
time step continuity errors : sum local = 7.71801e-06, global = -6.66903e-07, cumulative = 3.19026e-05
smoothSolver:  Solving for omega, Initial residual = 8.1619e-06, Final residual = 2.10325e-07, No Iterations 2
smoothSolver:  Solving for k, Initial residual = 0.00118652, Final residual = 8.85049e-05, No Iterations 1
ExecutionTime = 40.72 s  ClockTime = 41 s

forces forcesFish write:
    Sum of forces
        Total    : (0.769867 -0.00296646 -0.014049)
        Pressure : (0.596022 -0.00334289 -0.0142998)
        Viscous  : (0.173844 0.000376437 0.000250772)
    Sum of moments
        Total    : (0.000279869 0.00329286 0.0110598)
        Pressure : (0.000287853 0.00341324 0.00996083)
        Viscous  : (-7.98448e-06 -0.000120382 0.00109899)
    writing force and moment files.

Time = 44

smoothSolver:  Solving for Ux, Initial residual = 8.07829e-05, Final residual = 1.70863e-06, No Iterations 2
smoothSolver:  Solving for Uy, Initial residual = 0.000928954, Final residual = 1.98584e-05, No Iterations 2
smoothSolver:  Solving for Uz, Initial residual = 0.00229167, Final residual = 0.000227183, No Iterations 1
GAMG:  Solving for p, Initial residual = 0.0039746, Final residual = 0.000205091, No Iterations 2
time step continuity errors : sum local = 6.96266e-06, global = -8.90094e-07, cumulative = 3.10125e-05
smoothSolver:  Solving for omega, Initial residual = 7.09184e-06, Final residual = 1.93546e-07, No Iterations 2
smoothSolver:  Solving for k, Initial residual = 0.00103195, Final residual = 7.87529e-05, No Iterations 1
ExecutionTime = 41.58 s  ClockTime = 41 s

forces forcesFish write:
    Sum of forces
        Total    : (0.768309 -0.00363071 -0.0139417)
        Pressure : (0.594878 -0.00401839 -0.0141914)
        Viscous  : (0.173432 0.000387677 0.000249685)
    Sum of moments
        Total    : (0.000281536 0.00322959 0.0107929)
        Pressure : (0.000289502 0.00334967 0.00969276)
        Viscous  : (-7.96599e-06 -0.000120074 0.00110017)
    writing force and moment files.

Time = 45

smoothSolver:  Solving for Ux, Initial residual = 7.37649e-05, Final residual = 1.59953e-06, No Iterations 2
smoothSolver:  Solving for Uy, Initial residual = 0.000894031, Final residual = 1.91503e-05, No Iterations 2
smoothSolver:  Solving for Uz, Initial residual = 0.00217269, Final residual = 0.000214777, No Iterations 1
GAMG:  Solving for p, Initial residual = 0.00370443, Final residual = 0.000178868, No Iterations 2
time step continuity errors : sum local = 6.07431e-06, global = -1.15072e-06, cumulative = 2.98618e-05
smoothSolver:  Solving for omega, Initial residual = 6.2035e-06, Final residual = 1.79234e-07, No Iterations 2
smoothSolver:  Solving for k, Initial residual = 0.000893585, Final residual = 7.00104e-05, No Iterations 1
ExecutionTime = 42.42 s  ClockTime = 42 s

forces forcesFish write:
    Sum of forces
        Total    : (0.766848 -0.00416042 -0.0136281)
        Pressure : (0.593799 -0.00455532 -0.0138766)
        Viscous  : (0.17305 0.000394903 0.000248565)
    Sum of moments
        Total    : (0.000280415 0.00313125 0.010552)
        Pressure : (0.000288357 0.00325099 0.00945138)
        Viscous  : (-7.94166e-06 -0.000119743 0.00110059)
    writing force and moment files.

Time = 46

smoothSolver:  Solving for Ux, Initial residual = 7.04317e-05, Final residual = 1.50339e-06, No Iterations 2
smoothSolver:  Solving for Uy, Initial residual = 0.000856697, Final residual = 1.84353e-05, No Iterations 2
smoothSolver:  Solving for Uz, Initial residual = 0.00203961, Final residual = 0.000201238, No Iterations 1
GAMG:  Solving for p, Initial residual = 0.00346079, Final residual = 0.000152773, No Iterations 2
time step continuity errors : sum local = 5.18908e-06, global = -1.28274e-06, cumulative = 2.85791e-05
smoothSolver:  Solving for omega, Initial residual = 5.46631e-06, Final residual = 1.67056e-07, No Iterations 2
smoothSolver:  Solving for k, Initial residual = 0.000770813, Final residual = 6.22112e-05, No Iterations 1
ExecutionTime = 43.27 s  ClockTime = 43 s

forces forcesFish write:
    Sum of forces
        Total    : (0.765554 -0.00475521 -0.0132127)
        Pressure : (0.592857 -0.00515393 -0.01346)
        Viscous  : (0.172698 0.00039872 0.000247314)
    Sum of moments
        Total    : (0.00027732 0.00302167 0.0103054)
        Pressure : (0.000285234 0.00314102 0.00920505)
        Viscous  : (-7.91408e-06 -0.000119348 0.00110032)
    writing force and moment files.

Time = 47

smoothSolver:  Solving for Ux, Initial residual = 6.89741e-05, Final residual = 1.41986e-06, No Iterations 2
smoothSolver:  Solving for Uy, Initial residual = 0.000821047, Final residual = 1.77204e-05, No Iterations 2
smoothSolver:  Solving for Uz, Initial residual = 0.00189925, Final residual = 0.000187653, No Iterations 1
GAMG:  Solving for p, Initial residual = 0.00323188, Final residual = 0.000130756, No Iterations 2
time step continuity errors : sum local = 4.44105e-06, global = -1.2326e-06, cumulative = 2.73465e-05
smoothSolver:  Solving for omega, Initial residual = 4.85671e-06, Final residual = 1.56585e-07, No Iterations 2
smoothSolver:  Solving for k, Initial residual = 0.000662501, Final residual = 5.52569e-05, No Iterations 1
ExecutionTime = 44.13 s  ClockTime = 44 s

forces forcesFish write:
    Sum of forces
        Total    : (0.764461 -0.00556588 -0.0127728)
        Pressure : (0.592087 -0.00596579 -0.0130188)
        Viscous  : (0.172373 0.00039991 0.000245927)
    Sum of moments
        Total    : (0.000272985 0.0029167 0.0100238)
        Pressure : (0.000280869 0.00303561 0.00892428)
        Viscous  : (-7.88429e-06 -0.000118907 0.00109948)
    writing force and moment files.

Time = 48

smoothSolver:  Solving for Ux, Initial residual = 6.70584e-05, Final residual = 1.343e-06, No Iterations 2
smoothSolver:  Solving for Uy, Initial residual = 0.000791348, Final residual = 1.6976e-05, No Iterations 2
smoothSolver:  Solving for Uz, Initial residual = 0.0017689, Final residual = 0.000175479, No Iterations 1
GAMG:  Solving for p, Initial residual = 0.00301573, Final residual = 0.000122989, No Iterations 2
time step continuity errors : sum local = 4.17562e-06, global = -1.09375e-06, cumulative = 2.62527e-05
smoothSolver:  Solving for omega, Initial residual = 4.35406e-06, Final residual = 1.47475e-07, No Iterations 2
smoothSolver:  Solving for k, Initial residual = 0.000567981, Final residual = 4.9098e-05, No Iterations 1
ExecutionTime = 44.96 s  ClockTime = 45 s

forces forcesFish write:
    Sum of forces
        Total    : (0.763578 -0.00666487 -0.01236)
        Pressure : (0.591502 -0.00706405 -0.0126045)
        Viscous  : (0.172075 0.000399178 0.000244444)
    Sum of moments
        Total    : (0.000268027 0.00282636 0.00968951)
        Pressure : (0.000275881 0.0029448 0.00859134)
        Viscous  : (-7.8536e-06 -0.000118438 0.00109818)
    writing force and moment files.

Time = 49

smoothSolver:  Solving for Ux, Initial residual = 6.33013e-05, Final residual = 1.26624e-06, No Iterations 2
smoothSolver:  Solving for Uy, Initial residual = 0.000765641, Final residual = 1.62205e-05, No Iterations 2
smoothSolver:  Solving for Uz, Initial residual = 0.00167399, Final residual = 0.000166316, No Iterations 1
GAMG:  Solving for p, Initial residual = 0.0028208, Final residual = 0.0001171, No Iterations 2
time step continuity errors : sum local = 3.97222e-06, global = -1.01745e-06, cumulative = 2.52353e-05
smoothSolver:  Solving for omega, Initial residual = 3.93631e-06, Final residual = 1.3932e-07, No Iterations 2
smoothSolver:  Solving for k, Initial residual = 0.000486144, Final residual = 4.36601e-05, No Iterations 1
ExecutionTime = 45.84 s  ClockTime = 46 s

forces forcesFish write:
    Sum of forces
        Total    : (0.762869 -0.00798092 -0.0120306)
        Pressure : (0.591067 -0.00837799 -0.0122735)
        Viscous  : (0.171802 0.000397074 0.000242853)
    Sum of moments
        Total    : (0.000263241 0.00276172 0.00931819)
        Pressure : (0.000271064 0.00287965 0.00822169)
        Viscous  : (-7.82266e-06 -0.000117926 0.0010965)
    writing force and moment files.

Time = 50

smoothSolver:  Solving for Ux, Initial residual = 5.83512e-05, Final residual = 1.19015e-06, No Iterations 2
smoothSolver:  Solving for Uy, Initial residual = 0.00074083, Final residual = 1.54692e-05, No Iterations 2
smoothSolver:  Solving for Uz, Initial residual = 0.00161081, Final residual = 0.000159695, No Iterations 1
GAMG:  Solving for p, Initial residual = 0.00264168, Final residual = 0.00011104, No Iterations 2
time step continuity errors : sum local = 3.76218e-06, global = -9.05764e-07, cumulative = 2.43295e-05
smoothSolver:  Solving for omega, Initial residual = 3.58649e-06, Final residual = 1.31943e-07, No Iterations 2
smoothSolver:  Solving for k, Initial residual = 0.000415797, Final residual = 3.88691e-05, No Iterations 1
ExecutionTime = 46.78 s  ClockTime = 47 s

forces forcesFish write:
    Sum of forces
        Total    : (0.762254 -0.00932558 -0.0118323)
        Pressure : (0.590704 -0.00971958 -0.0120735)
        Viscous  : (0.171551 0.000394005 0.000241205)
    Sum of moments
        Total    : (0.00025943 0.00273052 0.00895312)
        Pressure : (0.000267222 0.00284791 0.00785859)
        Viscous  : (-7.79161e-06 -0.000117393 0.00109453)
    writing force and moment files.

Time = 51

smoothSolver:  Solving for Ux, Initial residual = 5.3967e-05, Final residual = 1.11852e-06, No Iterations 2
smoothSolver:  Solving for Uy, Initial residual = 0.000713753, Final residual = 1.47216e-05, No Iterations 2
smoothSolver:  Solving for Uz, Initial residual = 0.00153983, Final residual = 0.000153143, No Iterations 1
GAMG:  Solving for p, Initial residual = 0.00247378, Final residual = 0.000106965, No Iterations 2
time step continuity errors : sum local = 3.62022e-06, global = -6.37218e-07, cumulative = 2.36923e-05
smoothSolver:  Solving for omega, Initial residual = 3.29146e-06, Final residual = 1.25204e-07, No Iterations 2
smoothSolver:  Solving for k, Initial residual = 0.000355595, Final residual = 3.46401e-05, No Iterations 1
ExecutionTime = 47.99 s  ClockTime = 48 s

forces forcesFish write:
    Sum of forces
        Total    : (0.761662 -0.0105467 -0.0117642)
        Pressure : (0.590341 -0.0109369 -0.0120037)
        Viscous  : (0.171321 0.000390251 0.000239546)
    Sum of moments
        Total    : (0.000256889 0.00272925 0.0086256)
        Pressure : (0.000264651 0.0028461 0.00753327)
        Viscous  : (-7.76189e-06 -0.00011685 0.00109233)
    writing force and moment files.

Time = 52

smoothSolver:  Solving for Ux, Initial residual = 5.04646e-05, Final residual = 1.05388e-06, No Iterations 2
smoothSolver:  Solving for Uy, Initial residual = 0.00068376, Final residual = 1.39884e-05, No Iterations 2
smoothSolver:  Solving for Uz, Initial residual = 0.00145956, Final residual = 2.90805e-05, No Iterations 2
GAMG:  Solving for p, Initial residual = 0.0023247, Final residual = 0.000106789, No Iterations 2
time step continuity errors : sum local = 3.61156e-06, global = -2.82175e-07, cumulative = 2.34101e-05
smoothSolver:  Solving for omega, Initial residual = 3.04207e-06, Final residual = 1.19143e-07, No Iterations 2
smoothSolver:  Solving for k, Initial residual = 0.000304487, Final residual = 6.09342e-06, No Iterations 2
ExecutionTime = 48.97 s  ClockTime = 49 s

forces forcesFish write:
    Sum of forces
        Total    : (0.761119 -0.0115746 -0.0118082)
        Pressure : (0.590049 -0.011959 -0.012046)
        Viscous  : (0.17107 0.000384356 0.000237788)
    Sum of moments
        Total    : (0.000255513 0.00275196 0.00833932)
        Pressure : (0.000263244 0.00286823 0.00725027)
        Viscous  : (-7.73127e-06 -0.000116275 0.00108904)
    writing force and moment files.

Time = 53

smoothSolver:  Solving for Ux, Initial residual = 4.80071e-05, Final residual = 9.98259e-07, No Iterations 2
smoothSolver:  Solving for Uy, Initial residual = 0.00065483, Final residual = 1.33342e-05, No Iterations 2
smoothSolver:  Solving for Uz, Initial residual = 0.00136261, Final residual = 0.000136158, No Iterations 1
GAMG:  Solving for p, Initial residual = 0.00217547, Final residual = 0.000103227, No Iterations 2
time step continuity errors : sum local = 3.48971e-06, global = 4.36832e-08, cumulative = 2.34538e-05
smoothSolver:  Solving for omega, Initial residual = 2.94556e-06, Final residual = 1.16814e-07, No Iterations 2
smoothSolver:  Solving for k, Initial residual = 0.000259066, Final residual = 5.46032e-06, No Iterations 2
ExecutionTime = 49.87 s  ClockTime = 50 s

forces forcesFish write:
    Sum of forces
        Total    : (0.760487 -0.0124819 -0.0118948)
        Pressure : (0.589647 -0.0128596 -0.0121311)
        Viscous  : (0.17084 0.000377708 0.000236282)
    Sum of moments
        Total    : (0.000254895 0.00278167 0.0080782)
        Pressure : (0.000262597 0.00289744 0.00699258)
        Viscous  : (-7.7024e-06 -0.000115771 0.00108562)
    writing force and moment files.

Time = 54

smoothSolver:  Solving for Ux, Initial residual = 4.65595e-05, Final residual = 4.63626e-06, No Iterations 1
smoothSolver:  Solving for Uy, Initial residual = 0.000628154, Final residual = 1.27319e-05, No Iterations 2
smoothSolver:  Solving for Uz, Initial residual = 0.00129475, Final residual = 2.60897e-05, No Iterations 2
GAMG:  Solving for p, Initial residual = 0.00203949, Final residual = 9.45483e-05, No Iterations 2
time step continuity errors : sum local = 3.19554e-06, global = 3.64654e-07, cumulative = 2.38185e-05
smoothSolver:  Solving for omega, Initial residual = 2.80541e-06, Final residual = 1.13496e-07, No Iterations 2
smoothSolver:  Solving for k, Initial residual = 0.000220875, Final residual = 4.86974e-06, No Iterations 2
ExecutionTime = 50.8 s  ClockTime = 51 s

forces forcesFish write:
    Sum of forces
        Total    : (0.760063 -0.0132695 -0.0120136)
        Pressure : (0.589431 -0.0136399 -0.0122482)
        Viscous  : (0.170631 0.000370401 0.000234632)
    Sum of moments
        Total    : (0.000254862 0.00281598 0.00784293)
        Pressure : (0.000262537 0.00293119 0.00676059)
        Viscous  : (-7.67428e-06 -0.000115215 0.00108233)
    writing force and moment files.

Time = 55

smoothSolver:  Solving for Ux, Initial residual = 4.60985e-05, Final residual = 4.52372e-06, No Iterations 1
smoothSolver:  Solving for Uy, Initial residual = 0.000603337, Final residual = 1.21167e-05, No Iterations 2
smoothSolver:  Solving for Uz, Initial residual = 0.00121801, Final residual = 0.000121327, No Iterations 1
GAMG:  Solving for p, Initial residual = 0.00190397, Final residual = 8.23096e-05, No Iterations 2
time step continuity errors : sum local = 2.78166e-06, global = 5.95881e-07, cumulative = 2.44143e-05
smoothSolver:  Solving for omega, Initial residual = 2.65513e-06, Final residual = 1.09609e-07, No Iterations 2
smoothSolver:  Solving for k, Initial residual = 0.000188769, Final residual = 4.33443e-06, No Iterations 2
ExecutionTime = 51.7 s  ClockTime = 52 s

forces forcesFish write:
    Sum of forces
        Total    : (0.759646 -0.0140408 -0.0121226)
        Pressure : (0.589205 -0.0144028 -0.012356)
        Viscous  : (0.170441 0.000361993 0.000233405)
    Sum of moments
        Total    : (0.000255092 0.00284503 0.00760935)
        Pressure : (0.000262739 0.00295982 0.00653054)
        Viscous  : (-7.64747e-06 -0.000114793 0.00107881)
    writing force and moment files.

Time = 56

smoothSolver:  Solving for Ux, Initial residual = 4.52038e-05, Final residual = 4.37678e-06, No Iterations 1
smoothSolver:  Solving for Uy, Initial residual = 0.000580426, Final residual = 1.14902e-05, No Iterations 2
smoothSolver:  Solving for Uz, Initial residual = 0.00116919, Final residual = 0.000116148, No Iterations 1
GAMG:  Solving for p, Initial residual = 0.00178144, Final residual = 6.99442e-05, No Iterations 2
time step continuity errors : sum local = 2.36387e-06, global = 7.22005e-07, cumulative = 2.51363e-05
smoothSolver:  Solving for omega, Initial residual = 2.50526e-06, Final residual = 1.05233e-07, No Iterations 2
smoothSolver:  Solving for k, Initial residual = 0.000161865, Final residual = 3.85439e-06, No Iterations 2
ExecutionTime = 52.66 s  ClockTime = 53 s

forces forcesFish write:
    Sum of forces
        Total    : (0.759203 -0.0148511 -0.0122088)
        Pressure : (0.588936 -0.0152039 -0.0124412)
        Viscous  : (0.170267 0.000352781 0.000232332)
    Sum of moments
        Total    : (0.000255411 0.00286601 0.00735996)
        Pressure : (0.000263032 0.00298042 0.00628484)
        Viscous  : (-7.62132e-06 -0.000114412 0.00107512)
    writing force and moment files.

Time = 57

smoothSolver:  Solving for Ux, Initial residual = 4.34224e-05, Final residual = 4.17928e-06, No Iterations 1
smoothSolver:  Solving for Uy, Initial residual = 0.000559808, Final residual = 5.59434e-05, No Iterations 1
smoothSolver:  Solving for Uz, Initial residual = 0.00113906, Final residual = 0.000112359, No Iterations 1
GAMG:  Solving for p, Initial residual = 0.00166683, Final residual = 6.85578e-05, No Iterations 2
time step continuity errors : sum local = 2.31754e-06, global = 6.22382e-07, cumulative = 2.57587e-05
smoothSolver:  Solving for omega, Initial residual = 2.35527e-06, Final residual = 1.00413e-07, No Iterations 2
smoothSolver:  Solving for k, Initial residual = 0.000139332, Final residual = 3.42497e-06, No Iterations 2
ExecutionTime = 53.55 s  ClockTime = 53 s

forces forcesFish write:
    Sum of forces
        Total    : (0.758695 -0.0157204 -0.0122688)
        Pressure : (0.588585 -0.0160638 -0.0125001)
        Viscous  : (0.17011 0.00034337 0.000231322)
    Sum of moments
        Total    : (0.000255743 0.00287863 0.00708044)
        Pressure : (0.000263342 0.00299268 0.00600941)
        Viscous  : (-7.59855e-06 -0.000114041 0.00107104)
    writing force and moment files.

Time = 58

smoothSolver:  Solving for Ux, Initial residual = 4.02564e-05, Final residual = 3.90059e-06, No Iterations 1
smoothSolver:  Solving for Uy, Initial residual = 0.000545815, Final residual = 5.44931e-05, No Iterations 1
smoothSolver:  Solving for Uz, Initial residual = 0.00110607, Final residual = 0.000108474, No Iterations 1
GAMG:  Solving for p, Initial residual = 0.00156493, Final residual = 7.11561e-05, No Iterations 2
time step continuity errors : sum local = 2.40681e-06, global = 4.01832e-07, cumulative = 2.61606e-05
smoothSolver:  Solving for omega, Initial residual = 2.21e-06, Final residual = 9.53496e-08, No Iterations 2
smoothSolver:  Solving for k, Initial residual = 0.000120361, Final residual = 3.04117e-06, No Iterations 2
ExecutionTime = 54.4 s  ClockTime = 54 s

forces forcesFish write:
    Sum of forces
        Total    : (0.758149 -0.0165832 -0.0122999)
        Pressure : (0.58818 -0.0169167 -0.0125302)
        Viscous  : (0.169969 0.000333524 0.000230357)
    Sum of moments
        Total    : (0.000255983 0.00288252 0.00679443)
        Pressure : (0.000263559 0.00299619 0.00572748)
        Viscous  : (-7.57623e-06 -0.000113675 0.00106694)
    writing force and moment files.

Time = 59

smoothSolver:  Solving for Ux, Initial residual = 3.71408e-05, Final residual = 3.61008e-06, No Iterations 1
smoothSolver:  Solving for Uy, Initial residual = 0.000530676, Final residual = 1.03517e-05, No Iterations 2
smoothSolver:  Solving for Uz, Initial residual = 0.00106522, Final residual = 0.000104268, No Iterations 1
GAMG:  Solving for p, Initial residual = 0.00147098, Final residual = 6.53552e-05, No Iterations 2
time step continuity errors : sum local = 2.21274e-06, global = 3.69842e-07, cumulative = 2.65304e-05
smoothSolver:  Solving for omega, Initial residual = 2.07137e-06, Final residual = 9.01573e-08, No Iterations 2
smoothSolver:  Solving for k, Initial residual = 0.000104332, Final residual = 2.69838e-06, No Iterations 2
ExecutionTime = 55.26 s  ClockTime = 55 s

forces forcesFish write:
    Sum of forces
        Total    : (0.757625 -0.0173476 -0.0123026)
        Pressure : (0.587782 -0.0176701 -0.0125321)
        Viscous  : (0.169843 0.000322458 0.000229452)
    Sum of moments
        Total    : (0.000255972 0.00287839 0.00654148)
        Pressure : (0.000263524 0.00299172 0.0054785)
        Viscous  : (-7.55202e-06 -0.000113325 0.00106298)
    writing force and moment files.

Time = 60

smoothSolver:  Solving for Ux, Initial residual = 3.50571e-05, Final residual = 3.394e-06, No Iterations 1
smoothSolver:  Solving for Uy, Initial residual = 0.000508078, Final residual = 5.04676e-05, No Iterations 1
smoothSolver:  Solving for Uz, Initial residual = 0.00101596, Final residual = 9.97818e-05, No Iterations 1
GAMG:  Solving for p, Initial residual = 0.00137703, Final residual = 5.60558e-05, No Iterations 2
time step continuity errors : sum local = 1.89955e-06, global = 3.8383e-07, cumulative = 2.69142e-05
smoothSolver:  Solving for omega, Initial residual = 1.93355e-06, Final residual = 8.48218e-08, No Iterations 2
smoothSolver:  Solving for k, Initial residual = 9.07474e-05, Final residual = 2.39202e-06, No Iterations 2
ExecutionTime = 56.18 s  ClockTime = 56 s

forces forcesFish write:
    Sum of forces
        Total    : (0.757107 -0.0179276 -0.0122881)
        Pressure : (0.587376 -0.0182395 -0.0125167)
        Viscous  : (0.169731 0.000311902 0.000228599)
    Sum of moments
        Total    : (0.000255801 0.00287051 0.00633668)
        Pressure : (0.000263332 0.0029835 0.0052778)
        Viscous  : (-7.53152e-06 -0.000112992 0.00105888)
    writing force and moment files.

Time = 61

smoothSolver:  Solving for Ux, Initial residual = 3.33682e-05, Final residual = 3.21357e-06, No Iterations 1
smoothSolver:  Solving for Uy, Initial residual = 0.000488034, Final residual = 4.85394e-05, No Iterations 1
smoothSolver:  Solving for Uz, Initial residual = 0.000959, Final residual = 9.46907e-05, No Iterations 1
GAMG:  Solving for p, Initial residual = 0.00128908, Final residual = 5.16707e-05, No Iterations 2
time step continuity errors : sum local = 1.75181e-06, global = 2.98092e-07, cumulative = 2.72123e-05
smoothSolver:  Solving for omega, Initial residual = 1.8013e-06, Final residual = 7.94701e-08, No Iterations 2
smoothSolver:  Solving for k, Initial residual = 7.91563e-05, Final residual = 2.11831e-06, No Iterations 2
ExecutionTime = 57.12 s  ClockTime = 57 s

forces forcesFish write:
    Sum of forces
        Total    : (0.756612 -0.0183572 -0.0122659)
        Pressure : (0.58698 -0.0186583 -0.0124937)
        Viscous  : (0.169632 0.000301047 0.000227835)
    Sum of moments
        Total    : (0.000255493 0.00286149 0.00617366)
        Pressure : (0.000263006 0.00297418 0.00511886)
        Viscous  : (-7.51294e-06 -0.000112688 0.00105481)
    writing force and moment files.

Time = 62

smoothSolver:  Solving for Ux, Initial residual = 3.21934e-05, Final residual = 3.06703e-06, No Iterations 1
smoothSolver:  Solving for Uy, Initial residual = 0.000467417, Final residual = 4.6531e-05, No Iterations 1
smoothSolver:  Solving for Uz, Initial residual = 0.000901314, Final residual = 8.95107e-05, No Iterations 1
GAMG:  Solving for p, Initial residual = 0.00120813, Final residual = 5.02001e-05, No Iterations 2
time step continuity errors : sum local = 1.70223e-06, global = 1.22729e-07, cumulative = 2.73351e-05
smoothSolver:  Solving for omega, Initial residual = 1.67415e-06, Final residual = 7.41498e-08, No Iterations 2
smoothSolver:  Solving for k, Initial residual = 6.92011e-05, Final residual = 1.87439e-06, No Iterations 2
ExecutionTime = 58.06 s  ClockTime = 58 s

forces forcesFish write:
    Sum of forces
        Total    : (0.756146 -0.01871 -0.0122408)
        Pressure : (0.586601 -0.0189999 -0.0124679)
        Viscous  : (0.169546 0.000289925 0.000227134)
    Sum of moments
        Total    : (0.000255056 0.00285221 0.00603242)
        Pressure : (0.000262552 0.00296462 0.00498166)
        Viscous  : (-7.49585e-06 -0.000112404 0.00105076)
    writing force and moment files.

Time = 63

smoothSolver:  Solving for Ux, Initial residual = 3.12698e-05, Final residual = 2.93888e-06, No Iterations 1
smoothSolver:  Solving for Uy, Initial residual = 0.000448075, Final residual = 4.46107e-05, No Iterations 1
smoothSolver:  Solving for Uz, Initial residual = 0.000849771, Final residual = 8.47474e-05, No Iterations 1
GAMG:  Solving for p, Initial residual = 0.00113143, Final residual = 4.70133e-05, No Iterations 2
time step continuity errors : sum local = 1.59418e-06, global = -8.15891e-08, cumulative = 2.72535e-05
smoothSolver:  Solving for omega, Initial residual = 1.55249e-06, Final residual = 6.89026e-08, No Iterations 2
smoothSolver:  Solving for k, Initial residual = 6.06027e-05, Final residual = 1.65735e-06, No Iterations 2
ExecutionTime = 58.97 s  ClockTime = 59 s

forces forcesFish write:
    Sum of forces
        Total    : (0.755708 -0.0190374 -0.0122148)
        Pressure : (0.586238 -0.0193159 -0.0124413)
        Viscous  : (0.16947 0.00027856 0.000226504)
    Sum of moments
        Total    : (0.000254496 0.00284283 0.00589811)
        Pressure : (0.000261977 0.00295497 0.00485138)
        Viscous  : (-7.48039e-06 -0.000112142 0.00104673)
    writing force and moment files.

Time = 64

smoothSolver:  Solving for Ux, Initial residual = 3.0309e-05, Final residual = 2.81576e-06, No Iterations 1
smoothSolver:  Solving for Uy, Initial residual = 0.000430572, Final residual = 4.28638e-05, No Iterations 1
smoothSolver:  Solving for Uz, Initial residual = 0.000808872, Final residual = 8.07559e-05, No Iterations 1
GAMG:  Solving for p, Initial residual = 0.00105919, Final residual = 4.24787e-05, No Iterations 2
time step continuity errors : sum local = 1.44032e-06, global = -2.71501e-07, cumulative = 2.6982e-05
smoothSolver:  Solving for omega, Initial residual = 1.43627e-06, Final residual = 6.37853e-08, No Iterations 2
smoothSolver:  Solving for k, Initial residual = 5.31499e-05, Final residual = 1.46452e-06, No Iterations 2
ExecutionTime = 60.12 s  ClockTime = 60 s

forces forcesFish write:
    Sum of forces
        Total    : (0.755293 -0.0193637 -0.0121891)
        Pressure : (0.585889 -0.0196307 -0.012415)
        Viscous  : (0.169404 0.000266989 0.000225938)
[...]
        Viscous  : (0.170179 -9.84173e-05 0.000232919)
    Sum of moments
        Total    : (0.000261529 0.0029652 0.00471493)
        Pressure : (0.000269216 0.00307939 0.00379916)
        Viscous  : (-7.68674e-06 -0.000114192 0.000915769)
    writing force and moment files.

Time = 148

smoothSolver:  Solving for Ux, Initial residual = 1.04463e-06, Final residual = 7.44637e-08, No Iterations 1
smoothSolver:  Solving for Uy, Initial residual = 1.05352e-05, Final residual = 9.35017e-07, No Iterations 1
smoothSolver:  Solving for Uz, Initial residual = 2.56291e-05, Final residual = 2.34569e-06, No Iterations 1
GAMG:  Solving for p, Initial residual = 3.89781e-05, Final residual = 1.76868e-06, No Iterations 2
time step continuity errors : sum local = 5.9838e-08, global = -3.1163e-08, cumulative = 2.58266e-05
smoothSolver:  Solving for omega, Initial residual = 1.42476e-08, Final residual = 1.8314e-09, No Iterations 1
smoothSolver:  Solving for k, Initial residual = 3.19613e-07, Final residual = 1.61382e-08, No Iterations 1
ExecutionTime = 139.36 s  ClockTime = 139 s

forces forcesFish write:
    Sum of forces
        Total    : (0.753011 -0.016963 -0.0127562)
        Pressure : (0.58283 -0.0168649 -0.0129892)
        Viscous  : (0.170181 -9.81239e-05 0.000232921)
    Sum of moments
        Total    : (0.000261523 0.00296646 0.00472789)
        Pressure : (0.00026921 0.00308065 0.00381204)
        Viscous  : (-7.68714e-06 -0.000114196 0.000915847)
    writing force and moment files.

Time = 149

smoothSolver:  Solving for Ux, Initial residual = 9.42055e-07, Final residual = 6.72447e-08, No Iterations 1
smoothSolver:  Solving for Uy, Initial residual = 9.97699e-06, Final residual = 8.99353e-07, No Iterations 1
smoothSolver:  Solving for Uz, Initial residual = 2.43086e-05, Final residual = 2.25998e-06, No Iterations 1
GAMG:  Solving for p, Initial residual = 3.74671e-05, Final residual = 3.63817e-06, No Iterations 1
time step continuity errors : sum local = 1.23085e-07, global = -3.42904e-08, cumulative = 2.57923e-05
smoothSolver:  Solving for omega, Initial residual = 1.36148e-08, Final residual = 1.71895e-09, No Iterations 1
smoothSolver:  Solving for k, Initial residual = 3.05712e-07, Final residual = 1.56251e-08, No Iterations 1
ExecutionTime = 140.11 s  ClockTime = 140 s

forces forcesFish write:
    Sum of forces
        Total    : (0.75301 -0.0169429 -0.0127579)
        Pressure : (0.582827 -0.0168451 -0.0129908)
        Viscous  : (0.170183 -9.78339e-05 0.00023292)
    Sum of moments
        Total    : (0.000261514 0.00296705 0.00473553)
        Pressure : (0.000269201 0.00308125 0.0038196)
        Viscous  : (-7.68747e-06 -0.000114199 0.000915926)
    writing force and moment files.

Time = 150

smoothSolver:  Solving for Ux, Initial residual = 8.79726e-07, Final residual = 6.41027e-08, No Iterations 1
smoothSolver:  Solving for Uy, Initial residual = 9.35108e-06, Final residual = 8.36493e-07, No Iterations 1
smoothSolver:  Solving for Uz, Initial residual = 2.27765e-05, Final residual = 2.10078e-06, No Iterations 1
GAMG:  Solving for p, Initial residual = 3.61496e-05, Final residual = 3.57847e-06, No Iterations 1
time step continuity errors : sum local = 1.21065e-07, global = -3.21535e-08, cumulative = 2.57602e-05
smoothSolver:  Solving for omega, Initial residual = 1.29861e-08, Final residual = 1.65729e-09, No Iterations 1
smoothSolver:  Solving for k, Initial residual = 2.92039e-07, Final residual = 1.48999e-08, No Iterations 1
ExecutionTime = 140.88 s  ClockTime = 141 s

forces forcesFish write:
    Sum of forces
        Total    : (0.753008 -0.0169235 -0.0127594)
        Pressure : (0.582823 -0.0168259 -0.0129923)
        Viscous  : (0.170185 -9.75642e-05 0.000232914)
    Sum of moments
        Total    : (0.000261504 0.00296758 0.00474293)
        Pressure : (0.000269192 0.00308177 0.00382694)
        Viscous  : (-7.68774e-06 -0.0001142 0.000915999)
    writing force and moment files.

Time = 151

smoothSolver:  Solving for Ux, Initial residual = 8.17759e-07, Final residual = 5.98237e-08, No Iterations 1
smoothSolver:  Solving for Uy, Initial residual = 8.79457e-06, Final residual = 7.80701e-07, No Iterations 1
smoothSolver:  Solving for Uz, Initial residual = 2.13952e-05, Final residual = 1.95429e-06, No Iterations 1
GAMG:  Solving for p, Initial residual = 3.48051e-05, Final residual = 1.55129e-06, No Iterations 2
time step continuity errors : sum local = 5.24823e-08, global = -2.59799e-08, cumulative = 2.57342e-05
smoothSolver:  Solving for omega, Initial residual = 1.24537e-08, Final residual = 1.59647e-09, No Iterations 1
smoothSolver:  Solving for k, Initial residual = 2.78697e-07, Final residual = 1.40576e-08, No Iterations 1
ExecutionTime = 141.68 s  ClockTime = 142 s

forces forcesFish write:
    Sum of forces
        Total    : (0.752995 -0.016894 -0.0127616)
        Pressure : (0.582808 -0.0167967 -0.0129945)
        Viscous  : (0.170187 -9.72853e-05 0.000232906)
    Sum of moments
        Total    : (0.000261493 0.00296836 0.004754)
        Pressure : (0.00026918 0.00308256 0.00383792)
        Viscous  : (-7.68793e-06 -0.0001142 0.000916077)
    writing force and moment files.

Time = 152

smoothSolver:  Solving for Ux, Initial residual = 7.27403e-07, Final residual = 5.32679e-08, No Iterations 1
smoothSolver:  Solving for Uy, Initial residual = 8.31249e-06, Final residual = 7.4438e-07, No Iterations 1
smoothSolver:  Solving for Uz, Initial residual = 2.02171e-05, Final residual = 1.86994e-06, No Iterations 1
GAMG:  Solving for p, Initial residual = 3.33215e-05, Final residual = 3.18984e-06, No Iterations 1
time step continuity errors : sum local = 1.07915e-07, global = -2.51504e-08, cumulative = 2.5709e-05
smoothSolver:  Solving for omega, Initial residual = 1.18979e-08, Final residual = 1.50032e-09, No Iterations 1
smoothSolver:  Solving for k, Initial residual = 2.65485e-07, Final residual = 1.35589e-08, No Iterations 1
ExecutionTime = 142.44 s  ClockTime = 142 s

forces forcesFish write:
    Sum of forces
        Total    : (0.752994 -0.0168773 -0.0127626)
        Pressure : (0.582805 -0.0167803 -0.0129955)
        Viscous  : (0.170189 -9.7014e-05 0.000232901)
    Sum of moments
        Total    : (0.000261483 0.00296869 0.00476036)
        Pressure : (0.000269171 0.00308289 0.00384421)
        Viscous  : (-7.6881e-06 -0.000114201 0.000916154)
    writing force and moment files.

Time = 153

smoothSolver:  Solving for Ux, Initial residual = 6.75782e-07, Final residual = 5.07806e-08, No Iterations 1
smoothSolver:  Solving for Uy, Initial residual = 7.7801e-06, Final residual = 6.93487e-07, No Iterations 1
smoothSolver:  Solving for Uz, Initial residual = 1.88984e-05, Final residual = 1.73319e-06, No Iterations 1
GAMG:  Solving for p, Initial residual = 3.20564e-05, Final residual = 3.0847e-06, No Iterations 1
time step continuity errors : sum local = 1.04358e-07, global = -2.15006e-08, cumulative = 2.56875e-05
smoothSolver:  Solving for omega, Initial residual = 1.1311e-08, Final residual = 1.44105e-09, No Iterations 1
smoothSolver:  Solving for k, Initial residual = 2.52433e-07, Final residual = 1.28633e-08, No Iterations 1
ExecutionTime = 143.2 s  ClockTime = 143 s

forces forcesFish write:
    Sum of forces
        Total    : (0.752994 -0.0168611 -0.0127634)
        Pressure : (0.582803 -0.0167643 -0.0129963)
        Viscous  : (0.170191 -9.67691e-05 0.000232895)
    Sum of moments
        Total    : (0.000261473 0.00296899 0.00476653)
        Pressure : (0.000269161 0.00308319 0.00385031)
        Viscous  : (-7.68817e-06 -0.000114201 0.000916222)
    writing force and moment files.

Time = 154

smoothSolver:  Solving for Ux, Initial residual = 6.27236e-07, Final residual = 4.73467e-08, No Iterations 1
smoothSolver:  Solving for Uy, Initial residual = 7.30036e-06, Final residual = 6.47154e-07, No Iterations 1
smoothSolver:  Solving for Uz, Initial residual = 1.7713e-05, Final residual = 1.61e-06, No Iterations 1
GAMG:  Solving for p, Initial residual = 3.07839e-05, Final residual = 2.98065e-06, No Iterations 1
time step continuity errors : sum local = 1.00838e-07, global = -1.78004e-08, cumulative = 2.56697e-05
smoothSolver:  Solving for omega, Initial residual = 1.07716e-08, Final residual = 1.37367e-09, No Iterations 1
smoothSolver:  Solving for k, Initial residual = 2.39736e-07, Final residual = 1.21691e-08, No Iterations 1
ExecutionTime = 143.97 s  ClockTime = 144 s

forces forcesFish write:
    Sum of forces
        Total    : (0.752994 -0.0168453 -0.0127641)
        Pressure : (0.582802 -0.0167488 -0.012997)
        Viscous  : (0.170192 -9.65352e-05 0.000232885)
    Sum of moments
        Total    : (0.000261462 0.00296924 0.00477255)
        Pressure : (0.000269151 0.00308344 0.00385627)
        Viscous  : (-7.68822e-06 -0.0001142 0.000916287)
    writing force and moment files.

Time = 155

smoothSolver:  Solving for Ux, Initial residual = 5.84021e-07, Final residual = 4.42964e-08, No Iterations 1
smoothSolver:  Solving for Uy, Initial residual = 6.85304e-06, Final residual = 6.05381e-07, No Iterations 1
smoothSolver:  Solving for Uz, Initial residual = 1.66026e-05, Final residual = 1.49917e-06, No Iterations 1
GAMG:  Solving for p, Initial residual = 2.95273e-05, Final residual = 2.87292e-06, No Iterations 1
time step continuity errors : sum local = 9.7193e-08, global = -1.41029e-08, cumulative = 2.56556e-05
smoothSolver:  Solving for omega, Initial residual = 1.02648e-08, Final residual = 1.30766e-09, No Iterations 1
smoothSolver:  Solving for k, Initial residual = 2.2739e-07, Final residual = 1.1504e-08, No Iterations 1
ExecutionTime = 144.73 s  ClockTime = 145 s

forces forcesFish write:
    Sum of forces
        Total    : (0.752995 -0.0168299 -0.0127647)
        Pressure : (0.582802 -0.0167336 -0.0129975)
        Viscous  : (0.170194 -9.63124e-05 0.000232876)
    Sum of moments
        Total    : (0.000261452 0.00296947 0.00477843)
        Pressure : (0.00026914 0.00308367 0.00386208)
        Viscous  : (-7.68824e-06 -0.000114199 0.00091635)
    writing force and moment files.

Time = 156

smoothSolver:  Solving for Ux, Initial residual = 5.4526e-07, Final residual = 4.15397e-08, No Iterations 1
smoothSolver:  Solving for Uy, Initial residual = 6.42822e-06, Final residual = 5.67372e-07, No Iterations 1
smoothSolver:  Solving for Uz, Initial residual = 1.55474e-05, Final residual = 1.39999e-06, No Iterations 1
GAMG:  Solving for p, Initial residual = 2.82798e-05, Final residual = 2.75939e-06, No Iterations 1
time step continuity errors : sum local = 9.33522e-08, global = -1.04565e-08, cumulative = 2.56452e-05
smoothSolver:  Solving for omega, Initial residual = 9.74577e-09, Final residual = 9.74577e-09, No Iterations 0
smoothSolver:  Solving for k, Initial residual = 2.19761e-07, Final residual = 1.09767e-08, No Iterations 1
ExecutionTime = 145.53 s  ClockTime = 145 s

forces forcesFish write:
    Sum of forces
        Total    : (0.752997 -0.016815 -0.0127652)
        Pressure : (0.582802 -0.0167189 -0.012998)
        Viscous  : (0.170195 -9.60981e-05 0.000232866)
    Sum of moments
        Total    : (0.000261442 0.00296966 0.00478415)
        Pressure : (0.00026913 0.00308386 0.00386774)
        Viscous  : (-7.68824e-06 -0.000114197 0.000916411)
    writing force and moment files.

Time = 157

smoothSolver:  Solving for Ux, Initial residual = 5.10321e-07, Final residual = 3.9047e-08, No Iterations 1
smoothSolver:  Solving for Uy, Initial residual = 6.02192e-06, Final residual = 5.3285e-07, No Iterations 1
smoothSolver:  Solving for Uz, Initial residual = 1.45397e-05, Final residual = 1.31125e-06, No Iterations 1
GAMG:  Solving for p, Initial residual = 2.70661e-05, Final residual = 2.64724e-06, No Iterations 1
time step continuity errors : sum local = 8.95579e-08, global = -6.89524e-09, cumulative = 2.56383e-05
smoothSolver:  Solving for omega, Initial residual = 1.24715e-08, Final residual = 1.5404e-09, No Iterations 1
smoothSolver:  Solving for k, Initial residual = 2.08427e-07, Final residual = 1.03637e-08, No Iterations 1
ExecutionTime = 146.28 s  ClockTime = 146 s

forces forcesFish write:
    Sum of forces
        Total    : (0.753 -0.0168005 -0.0127656)
        Pressure : (0.582803 -0.0167046 -0.0129984)
        Viscous  : (0.170197 -9.58915e-05 0.000232856)
    Sum of moments
        Total    : (0.000261432 0.00296981 0.00478967)
        Pressure : (0.00026912 0.00308401 0.00387321)
        Viscous  : (-7.68824e-06 -0.000114196 0.00091647)
    writing force and moment files.

Time = 158

smoothSolver:  Solving for Ux, Initial residual = 4.78639e-07, Final residual = 3.67679e-08, No Iterations 1
smoothSolver:  Solving for Uy, Initial residual = 5.63604e-06, Final residual = 5.01328e-07, No Iterations 1
smoothSolver:  Solving for Uz, Initial residual = 1.35822e-05, Final residual = 1.23149e-06, No Iterations 1
GAMG:  Solving for p, Initial residual = 2.58894e-05, Final residual = 2.54034e-06, No Iterations 1
time step continuity errors : sum local = 8.59413e-08, global = -3.4557e-09, cumulative = 2.56348e-05
smoothSolver:  Solving for omega, Initial residual = 1.0593e-08, Final residual = 1.35287e-09, No Iterations 1
smoothSolver:  Solving for k, Initial residual = 1.9609e-07, Final residual = 9.7878e-09, No Iterations 1
ExecutionTime = 147.04 s  ClockTime = 147 s

forces forcesFish write:
    Sum of forces
        Total    : (0.753003 -0.0167867 -0.0127658)
        Pressure : (0.582805 -0.016691 -0.0129987)
        Viscous  : (0.170198 -9.56919e-05 0.000232845)
    Sum of moments
        Total    : (0.000261422 0.00296992 0.00479498)
        Pressure : (0.000269111 0.00308412 0.00387846)
        Viscous  : (-7.68822e-06 -0.000114194 0.000916527)
    writing force and moment files.

Time = 159

smoothSolver:  Solving for Ux, Initial residual = 4.49946e-07, Final residual = 3.4685e-08, No Iterations 1
smoothSolver:  Solving for Uy, Initial residual = 5.27313e-06, Final residual = 4.72605e-07, No Iterations 1
smoothSolver:  Solving for Uz, Initial residual = 1.2688e-05, Final residual = 1.15962e-06, No Iterations 1
GAMG:  Solving for p, Initial residual = 2.47402e-05, Final residual = 2.4411e-06, No Iterations 1
time step continuity errors : sum local = 8.25841e-08, global = -1.1955e-10, cumulative = 2.56347e-05
smoothSolver:  Solving for omega, Initial residual = 9.52839e-09, Final residual = 9.52839e-09, No Iterations 0
smoothSolver:  Solving for k, Initial residual = 1.88888e-07, Final residual = 9.37093e-09, No Iterations 1
ExecutionTime = 147.84 s  ClockTime = 148 s

forces forcesFish write:
    Sum of forces
        Total    : (0.753006 -0.0167735 -0.012766)
        Pressure : (0.582807 -0.016678 -0.0129988)
        Viscous  : (0.170199 -9.54997e-05 0.000232835)
    Sum of moments
        Total    : (0.000261413 0.00296999 0.00480005)
        Pressure : (0.000269101 0.00308418 0.00388347)
        Viscous  : (-7.6882e-06 -0.000114192 0.000916583)
    writing force and moment files.

Time = 160

smoothSolver:  Solving for Ux, Initial residual = 4.23822e-07, Final residual = 3.27838e-08, No Iterations 1
smoothSolver:  Solving for Uy, Initial residual = 4.93583e-06, Final residual = 4.4645e-07, No Iterations 1
smoothSolver:  Solving for Uz, Initial residual = 1.18691e-05, Final residual = 1.09475e-06, No Iterations 1
GAMG:  Solving for p, Initial residual = 2.36246e-05, Final residual = 2.34895e-06, No Iterations 1
time step continuity errors : sum local = 7.94668e-08, global = 3.15957e-09, cumulative = 2.56379e-05
smoothSolver:  Solving for omega, Initial residual = 1.18699e-08, Final residual = 1.48246e-09, No Iterations 1
smoothSolver:  Solving for k, Initial residual = 1.78343e-07, Final residual = 8.86914e-09, No Iterations 1
ExecutionTime = 148.63 s  ClockTime = 149 s

forces forcesFish write:
    Sum of forces
        Total    : (0.753009 -0.0167611 -0.012766)
        Pressure : (0.582809 -0.0166657 -0.0129988)
        Viscous  : (0.170201 -9.5316e-05 0.000232826)
    Sum of moments
        Total    : (0.000261403 0.00297002 0.00480486)
        Pressure : (0.000269091 0.00308421 0.00388823)
        Viscous  : (-7.68817e-06 -0.00011419 0.000916637)
    writing force and moment files.

Time = 161

smoothSolver:  Solving for Ux, Initial residual = 3.99801e-07, Final residual = 3.10212e-08, No Iterations 1
smoothSolver:  Solving for Uy, Initial residual = 4.62147e-06, Final residual = 4.22341e-07, No Iterations 1
smoothSolver:  Solving for Uz, Initial residual = 1.11135e-05, Final residual = 1.03584e-06, No Iterations 1
GAMG:  Solving for p, Initial residual = 2.25381e-05, Final residual = 8.41382e-07, No Iterations 2
time step continuity errors : sum local = 2.84647e-08, global = 4.72111e-09, cumulative = 2.56426e-05
smoothSolver:  Solving for omega, Initial residual = 9.88086e-09, Final residual = 9.88086e-09, No Iterations 0
smoothSolver:  Solving for k, Initial residual = 1.72519e-07, Final residual = 8.52184e-09, No Iterations 1
ExecutionTime = 149.44 s  ClockTime = 149 s

forces forcesFish write:
    Sum of forces
        Total    : (0.753009 -0.0167426 -0.0127659)
        Pressure : (0.582808 -0.0166474 -0.0129987)
        Viscous  : (0.170202 -9.51312e-05 0.000232818)
    Sum of moments
        Total    : (0.000261389 0.00297 0.00481193)
        Pressure : (0.000269077 0.00308419 0.00389523)
        Viscous  : (-7.68813e-06 -0.000114189 0.000916692)
    writing force and moment files.

Time = 162

smoothSolver:  Solving for Ux, Initial residual = 3.84046e-07, Final residual = 2.91837e-08, No Iterations 1
smoothSolver:  Solving for Uy, Initial residual = 4.36625e-06, Final residual = 4.12827e-07, No Iterations 1
smoothSolver:  Solving for Uz, Initial residual = 1.05357e-05, Final residual = 1.02734e-06, No Iterations 1
GAMG:  Solving for p, Initial residual = 2.13262e-05, Final residual = 2.00362e-06, No Iterations 1
time step continuity errors : sum local = 6.77844e-08, global = 8.53618e-09, cumulative = 2.56511e-05
smoothSolver:  Solving for omega, Initial residual = 1.20225e-08, Final residual = 1.50793e-09, No Iterations 1
smoothSolver:  Solving for k, Initial residual = 1.61634e-07, Final residual = 8.15873e-09, No Iterations 1
ExecutionTime = 150.25 s  ClockTime = 150 s

forces forcesFish write:
    Sum of forces
        Total    : (0.753012 -0.0167327 -0.0127655)
        Pressure : (0.582809 -0.0166377 -0.0129983)
        Viscous  : (0.170203 -9.49525e-05 0.000232817)
    Sum of moments
        Total    : (0.00026138 0.00296989 0.00481575)
        Pressure : (0.000269068 0.00308408 0.003899)
        Viscous  : (-7.68813e-06 -0.00011419 0.000916747)
    writing force and moment files.

Time = 163

smoothSolver:  Solving for Ux, Initial residual = 3.62925e-07, Final residual = 2.8272e-08, No Iterations 1
smoothSolver:  Solving for Uy, Initial residual = 4.06724e-06, Final residual = 3.88253e-07, No Iterations 1
smoothSolver:  Solving for Uz, Initial residual = 9.83548e-06, Final residual = 9.66435e-07, No Iterations 1
GAMG:  Solving for p, Initial residual = 2.03861e-05, Final residual = 1.98228e-06, No Iterations 1
time step continuity errors : sum local = 6.70624e-08, global = 1.10995e-08, cumulative = 2.56622e-05
smoothSolver:  Solving for omega, Initial residual = 9.84511e-09, Final residual = 9.84511e-09, No Iterations 0
smoothSolver:  Solving for k, Initial residual = 1.54954e-07, Final residual = 7.8557e-09, No Iterations 1
ExecutionTime = 151.01 s  ClockTime = 151 s


SIMPLE solution converged in 163 iterations

forces forcesFish write:
    Sum of forces
        Total    : (0.753014 -0.0167235 -0.0127651)
        Pressure : (0.582811 -0.0166287 -0.0129979)
        Viscous  : (0.170204 -9.47989e-05 0.000232816)
    Sum of moments
        Total    : (0.00026137 0.00296974 0.00481931)
        Pressure : (0.000269058 0.00308393 0.00390252)
        Viscous  : (-7.68805e-06 -0.000114191 0.000916792)
    writing force and moment files.

End

