/*---------------------------------------------------------------------------*\
| =========                 |                                                 |
| \\      /  F ield         | OpenFOAM: The Open Source CFD Toolbox           |
|  \\    /   O peration     | Version:  2512                                  |
|   \\  /    A nd           | Website:  www.openfoam.com                      |
|    \\/     M anipulation  |                                                 |
\*---------------------------------------------------------------------------*/
Build  : _bd2b6720-20260127 OPENFOAM=2512 version=2512
Arch   : "LSB;label=32;scalar=64"
Exec   : simpleFoam
Date   : Mar 27 2026
Time   : 16:30:08
Host   : mathias-laptop
PID    : 206238
I/O    : uncollated
Case   : /home/mat/OpenFOAM/mat-run/speed_sweep_runs/U_0p4
nProcs : 1
trapFpe: Floating point exception trapping enabled (FOAM_SIGFPE).
memory pool : not available
fileModificationChecking : Monitoring run-time modified files using timeStampMaster (fileModificationSkew 5, maxFileModificationPolls 20)
allowSystemOperations : Allowing user-supplied system call operations

// * * * * * * * * * * * * * * * * * * * * * * * * * * * * * * * * * * * * * //
Create time

Create mesh for time = 0


SIMPLE: convergence criteria
    field p	 tolerance 0.0001
    field U	 tolerance 1e-05
    field "(k|omega)"	 tolerance 1e-05

Reading field p

Reading field U

Reading/calculating face flux field phi

Selecting incompressible transport model Newtonian
Selecting turbulence model type RAS
Selecting RAS turbulence model kOmegaSST
Selecting patchDistMethod meshWave
RAS
{
    RASModel        kOmegaSST;
    turbulence      on;
    printCoeffs     on;
    alphaK1         0.85;
    alphaK2         1;
    alphaOmega1     0.5;
    alphaOmega2     0.856;
    gamma1          0.555556;
    gamma2          0.44;
    beta1           0.075;
    beta2           0.0828;
    betaStar        0.09;
    a1              0.31;
    b1              1;
    c1              10;
    F3              false;
    decayControl    false;
    kInf            0;
    omegaInf        0;
}

No MRF models present

No finite volume options present

Starting time loop

forces forcesFish:
    rho: rhoInf
    Freestream density (rhoInf) set to 1000
    Not including porosity effects

Time = 1

smoothSolver:  Solving for Ux, Initial residual = 1, Final residual = 0.0243325, No Iterations 2
smoothSolver:  Solving for Uy, Initial residual = 1, Final residual = 0.0289333, No Iterations 2
smoothSolver:  Solving for Uz, Initial residual = 1, Final residual = 0.0305666, No Iterations 2
GAMG:  Solving for p, Initial residual = 1, Final residual = 0.0571745, No Iterations 5
time step continuity errors : sum local = 8.53292e-06, global = -1.03531e-06, cumulative = -1.03531e-06
smoothSolver:  Solving for omega, Initial residual = 0.0170551, Final residual = 0.00083931, No Iterations 1
bounding omega, min: -14.0894 max: 10377.9 average: 85.1465
smoothSolver:  Solving for k, Initial residual = 1, Final residual = 0.0545095, No Iterations 1
ExecutionTime = 1.81 s  ClockTime = 1 s

forces forcesFish write:
    Sum of forces
        Total    : (0.605671 -0.0161769 -0.00154183)
        Pressure : (0.522968 -0.0161576 -0.00154427)
        Viscous  : (0.0827031 -1.92156e-05 2.44017e-06)
    Sum of moments
        Total    : (-6.72223e-06 0.00051835 0.00921786)
        Pressure : (-6.72268e-06 0.00052293 0.0090618)
        Viscous  : (4.46788e-10 -4.57964e-06 0.000156057)
    writing force and moment files.

Time = 2

smoothSolver:  Solving for Ux, Initial residual = 0.0258926, Final residual = 0.00145774, No Iterations 2
smoothSolver:  Solving for Uy, Initial residual = 0.342097, Final residual = 0.0286354, No Iterations 2
smoothSolver:  Solving for Uz, Initial residual = 0.315778, Final residual = 0.0277239, No Iterations 2
GAMG:  Solving for p, Initial residual = 0.190304, Final residual = 0.0161862, No Iterations 3
time step continuity errors : sum local = 1.5411e-05, global = -9.45613e-07, cumulative = -1.98093e-06
smoothSolver:  Solving for omega, Initial residual = 0.00919632, Final residual = 0.000485254, No Iterations 1
smoothSolver:  Solving for k, Initial residual = 0.460005, Final residual = 0.0275143, No Iterations 1
ExecutionTime = 2.52 s  ClockTime = 2 s

forces forcesFish write:
    Sum of forces
        Total    : (0.751897 -0.0161336 -0.00153682)
        Pressure : (0.673576 -0.0161858 -0.00154547)
        Viscous  : (0.0783214 5.22051e-05 8.653e-06)
    Sum of moments
        Total    : (-4.89365e-06 0.000268381 0.0131401)
        Pressure : (-4.91264e-06 0.000280569 0.012994)
        Viscous  : (1.89913e-08 -1.21884e-05 0.000146113)
    writing force and moment files.

Time = 3

smoothSolver:  Solving for Ux, Initial residual = 0.00626303, Final residual = 0.000369216, No Iterations 2
smoothSolver:  Solving for Uy, Initial residual = 0.156075, Final residual = 0.0128569, No Iterations 2
smoothSolver:  Solving for Uz, Initial residual = 0.207927, Final residual = 0.0179396, No Iterations 2
GAMG:  Solving for p, Initial residual = 0.132367, Final residual = 0.0121496, No Iterations 2
time step continuity errors : sum local = 2.71413e-05, global = -1.17208e-06, cumulative = -3.153e-06
smoothSolver:  Solving for omega, Initial residual = 0.00594155, Final residual = 0.00034119, No Iterations 1
smoothSolver:  Solving for k, Initial residual = 0.275288, Final residual = 0.0175784, No Iterations 1
ExecutionTime = 3.14 s  ClockTime = 3 s

forces forcesFish write:
    Sum of forces
        Total    : (0.701718 -0.0122223 -0.00026779)
        Pressure : (0.626656 -0.012339 -0.000284103)
        Viscous  : (0.0750618 0.000116724 1.63137e-05)
    Sum of moments
        Total    : (-9.87745e-06 -5.92637e-05 0.013109)
        Pressure : (-9.84693e-06 -4.0698e-05 0.0129719)
        Viscous  : (-3.05215e-08 -1.85657e-05 0.000137078)
    writing force and moment files.

Time = 4

smoothSolver:  Solving for Ux, Initial residual = 0.00329941, Final residual = 0.000191858, No Iterations 2
smoothSolver:  Solving for Uy, Initial residual = 0.0810018, Final residual = 0.0065698, No Iterations 2
smoothSolver:  Solving for Uz, Initial residual = 0.136791, Final residual = 0.0116035, No Iterations 2
GAMG:  Solving for p, Initial residual = 0.12021, Final residual = 0.00484583, No Iterations 3
time step continuity errors : sum local = 1.70499e-05, global = -9.91134e-07, cumulative = -4.14414e-06
smoothSolver:  Solving for omega, Initial residual = 0.00414175, Final residual = 0.000252782, No Iterations 1
smoothSolver:  Solving for k, Initial residual = 0.184656, Final residual = 0.0123727, No Iterations 1
ExecutionTime = 3.83 s  ClockTime = 3 s

forces forcesFish write:
    Sum of forces
        Total    : (0.537094 -0.00558171 0.000746182)
        Pressure : (0.464584 -0.00574875 0.000724181)
        Viscous  : (0.0725097 0.000167042 2.20003e-05)
    Sum of moments
        Total    : (-1.18752e-05 -0.000308847 0.0109475)
        Pressure : (-1.17819e-05 -0.000286893 0.0108158)
        Viscous  : (-9.324e-08 -2.19533e-05 0.000131714)
    writing force and moment files.

Time = 5

smoothSolver:  Solving for Ux, Initial residual = 0.00196722, Final residual = 0.000109957, No Iterations 2
smoothSolver:  Solving for Uy, Initial residual = 0.0431361, Final residual = 0.00341442, No Iterations 2
smoothSolver:  Solving for Uz, Initial residual = 0.0829409, Final residual = 0.00683077, No Iterations 2
GAMG:  Solving for p, Initial residual = 0.0816957, Final residual = 0.00386836, No Iterations 3
time step continuity errors : sum local = 2.08035e-05, global = -5.88323e-07, cumulative = -4.73246e-06
smoothSolver:  Solving for omega, Initial residual = 0.00303584, Final residual = 0.00019385, No Iterations 1
smoothSolver:  Solving for k, Initial residual = 0.133262, Final residual = 0.00926515, No Iterations 1
ExecutionTime = 4.47 s  ClockTime = 4 s

forces forcesFish write:
    Sum of forces
        Total    : (0.33667 0.00157381 0.0014406)
        Pressure : (0.266173 0.00137507 0.00141622)
        Viscous  : (0.0704973 0.000198735 2.4384e-05)
    Sum of moments
        Total    : (-1.17111e-05 -0.000445953 0.00791924)
        Pressure : (-1.15488e-05 -0.000423864 0.00778923)
        Viscous  : (-1.62235e-07 -2.20894e-05 0.000130013)
    writing force and moment files.

Time = 6

smoothSolver:  Solving for Ux, Initial residual = 0.0013195, Final residual = 6.27792e-05, No Iterations 2
smoothSolver:  Solving for Uy, Initial residual = 0.0210187, Final residual = 0.00141756, No Iterations 2
smoothSolver:  Solving for Uz, Initial residual = 0.0439624, Final residual = 0.00307111, No Iterations 2
GAMG:  Solving for p, Initial residual = 0.0521443, Final residual = 0.00275881, No Iterations 3
time step continuity errors : sum local = 1.96807e-05, global = -9.94975e-09, cumulative = -4.74241e-06
smoothSolver:  Solving for omega, Initial residual = 0.00230841, Final residual = 0.000152519, No Iterations 1
smoothSolver:  Solving for k, Initial residual = 0.101356, Final residual = 0.0072581, No Iterations 1
ExecutionTime = 5.02 s  ClockTime = 5 s

forces forcesFish write:
    Sum of forces
        Total    : (0.154983 0.00754508 0.00159602)
        Pressure : (0.0860587 0.00733276 0.00157217)
        Viscous  : (0.0689247 0.000212325 2.38536e-05)
    Sum of moments
        Total    : (-7.83044e-06 -0.000484623 0.0049019)
        Pressure : (-7.60774e-06 -0.000464867 0.00477039)
        Viscous  : (-2.22697e-07 -1.97564e-05 0.000131513)
    writing force and moment files.

Time = 7

smoothSolver:  Solving for Ux, Initial residual = 0.00106662, Final residual = 3.98318e-05, No Iterations 2
smoothSolver:  Solving for Uy, Initial residual = 0.0139148, Final residual = 0.000500391, No Iterations 2
smoothSolver:  Solving for Uz, Initial residual = 0.032838, Final residual = 0.0012627, No Iterations 2
GAMG:  Solving for p, Initial residual = 0.0339358, Final residual = 0.00176773, No Iterations 3
time step continuity errors : sum local = 1.4994e-05, global = 5.39484e-07, cumulative = -4.20292e-06
smoothSolver:  Solving for omega, Initial residual = 0.00180683, Final residual = 0.000122543, No Iterations 1
smoothSolver:  Solving for k, Initial residual = 0.0802539, Final residual = 0.00588923, No Iterations 1
ExecutionTime = 5.56 s  ClockTime = 5 s

forces forcesFish write:
    Sum of forces
        Total    : (0.0246562 0.0111298 0.00125142)
        Pressure : (-0.0430285 0.0109197 0.00123023)
        Viscous  : (0.0676846 0.000210106 2.11926e-05)
    Sum of moments
        Total    : (-9.62913e-07 -0.000450855 0.00240768)
        Pressure : (-7.01652e-07 -0.000434758 0.00227316)
        Viscous  : (-2.61261e-07 -1.60967e-05 0.000134522)
    writing force and moment files.

Time = 8

smoothSolver:  Solving for Ux, Initial residual = 0.00100446, Final residual = 3.78108e-05, No Iterations 2
smoothSolver:  Solving for Uy, Initial residual = 0.0179175, Final residual = 0.00104715, No Iterations 2
smoothSolver:  Solving for Uz, Initial residual = 0.0576203, Final residual = 0.00373987, No Iterations 2
GAMG:  Solving for p, Initial residual = 0.0267315, Final residual = 0.00238516, No Iterations 2
time step continuity errors : sum local = 2.19151e-05, global = 1.00003e-06, cumulative = -3.20289e-06
smoothSolver:  Solving for omega, Initial residual = 0.00144801, Final residual = 0.000100306, No Iterations 1
smoothSolver:  Solving for k, Initial residual = 0.0654143, Final residual = 0.00490026, No Iterations 1
ExecutionTime = 6.11 s  ClockTime = 6 s

forces forcesFish write:
    Sum of forces
        Total    : (-0.0379815 0.0124799 0.000698403)
        Pressure : (-0.104655 0.0122819 0.000682463)
        Viscous  : (0.0666731 0.000198029 1.594e-05)
    Sum of moments
        Total    : (6.56138e-06 -0.000342716 0.000903741)
        Pressure : (6.82159e-06 -0.000331049 0.00076591)
        Viscous  : (-2.60212e-07 -1.16678e-05 0.000137831)
    writing force and moment files.

Time = 9

smoothSolver:  Solving for Ux, Initial residual = 0.000988311, Final residual = 3.86154e-05, No Iterations 2
smoothSolver:  Solving for Uy, Initial residual = 0.0204115, Final residual = 0.00132516, No Iterations 2
smoothSolver:  Solving for Uz, Initial residual = 0.0801098, Final residual = 0.00567327, No Iterations 2
GAMG:  Solving for p, Initial residual = 0.029034, Final residual = 0.00199765, No Iterations 2
time step continuity errors : sum local = 1.83768e-05, global = 1.53753e-06, cumulative = -1.66536e-06
smoothSolver:  Solving for omega, Initial residual = 0.00118208, Final residual = 8.32856e-05, No Iterations 1
smoothSolver:  Solving for k, Initial residual = 0.0546186, Final residual = 0.00416388, No Iterations 1
ExecutionTime = 6.64 s  ClockTime = 6 s

forces forcesFish write:
    Sum of forces
        Total    : (-0.0493468 0.0121198 -1.37361e-05)
        Pressure : (-0.115136 0.0119378 -2.48137e-05)
        Viscous  : (0.0657896 0.000181979 1.10776e-05)
    Sum of moments
        Total    : (1.40843e-05 -0.000249474 0.000308302)
        Pressure : (1.4316e-05 -0.000241403 0.000168302)
        Viscous  : (-2.31754e-07 -8.0712e-06 0.00014)
    writing force and moment files.

Time = 10

smoothSolver:  Solving for Ux, Initial residual = 0.000933255, Final residual = 3.6624e-05, No Iterations 2
smoothSolver:  Solving for Uy, Initial residual = 0.0199437, Final residual = 0.00131202, No Iterations 2
smoothSolver:  Solving for Uz, Initial residual = 0.0774662, Final residual = 0.00552857, No Iterations 2
GAMG:  Solving for p, Initial residual = 0.0351852, Final residual = 0.00257635, No Iterations 2
time step continuity errors : sum local = 2.25263e-05, global = 2.05912e-06, cumulative = 3.93759e-07
smoothSolver:  Solving for omega, Initial residual = 0.000979626, Final residual = 7.00543e-05, No Iterations 1
smoothSolver:  Solving for k, Initial residual = 0.0464133, Final residual = 0.0035919, No Iterations 1
ExecutionTime = 7.18 s  ClockTime = 7 s

forces forcesFish write:
    Sum of forces
        Total    : (-0.0264831 0.0103702 -0.000578963)
        Pressure : (-0.0914302 0.0102025 -0.000586056)
        Viscous  : (0.0649471 0.000167656 7.09317e-06)
    Sum of moments
        Total    : (1.85414e-05 -0.000210237 0.000330516)
        Pressure : (1.87254e-05 -0.000204695 0.00018975)
        Viscous  : (-1.83938e-07 -5.54232e-06 0.000140766)
    writing force and moment files.

Time = 11

smoothSolver:  Solving for Ux, Initial residual = 0.000831776, Final residual = 3.13578e-05, No Iterations 2
smoothSolver:  Solving for Uy, Initial residual = 0.0171057, Final residual = 0.00107603, No Iterations 2
smoothSolver:  Solving for Uz, Initial residual = 0.062816, Final residual = 0.00429478, No Iterations 2
GAMG:  Solving for p, Initial residual = 0.0388391, Final residual = 0.00311147, No Iterations 2
time step continuity errors : sum local = 2.47605e-05, global = 2.3293e-06, cumulative = 2.72306e-06
smoothSolver:  Solving for omega, Initial residual = 0.000821971, Final residual = 5.95705e-05, No Iterations 1
smoothSolver:  Solving for k, Initial residual = 0.0400527, Final residual = 0.00314019, No Iterations 1
ExecutionTime = 7.71 s  ClockTime = 7 s

forces forcesFish write:
    Sum of forces
        Total    : (0.0150098 0.00769346 -0.000760443)
        Pressure : (-0.0490866 0.00753525 -0.000764894)
        Viscous  : (0.0640965 0.000158214 4.45066e-06)
    Sum of moments
        Total    : (1.76741e-05 -0.000232985 0.000697553)
        Pressure : (1.78029e-05 -0.000228814 0.000557272)
        Viscous  : (-1.2876e-07 -4.17124e-06 0.00014028)
    writing force and moment files.

Time = 12

smoothSolver:  Solving for Ux, Initial residual = 0.000713217, Final residual = 2.46973e-05, No Iterations 2
smoothSolver:  Solving for Uy, Initial residual = 0.0130868, Final residual = 0.000698754, No Iterations 2
smoothSolver:  Solving for Uz, Initial residual = 0.0461983, Final residual = 0.0027019, No Iterations 2
GAMG:  Solving for p, Initial residual = 0.0403602, Final residual = 0.00343894, No Iterations 2
time step continuity errors : sum local = 2.39414e-05, global = 2.34243e-06, cumulative = 5.06549e-06
smoothSolver:  Solving for omega, Initial residual = 0.000696922, Final residual = 5.10876e-05, No Iterations 1
smoothSolver:  Solving for k, Initial residual = 0.034941, Final residual = 0.00277056, No Iterations 1
ExecutionTime = 8.29 s  ClockTime = 8 s

forces forcesFish write:
    Sum of forces
        Total    : (0.0601126 0.00472648 -0.000425942)
        Pressure : (-0.00311686 0.00457175 -0.000429706)
        Viscous  : (0.0632294 0.000154732 3.76412e-06)
    Sum of moments
        Total    : (1.07437e-05 -0.000318885 0.00118235)
        Pressure : (1.08225e-05 -0.000314822 0.00104347)
        Viscous  : (-7.87982e-08 -4.06342e-06 0.000138878)
    writing force and moment files.

Time = 13

smoothSolver:  Solving for Ux, Initial residual = 0.000600735, Final residual = 1.85727e-05, No Iterations 2
smoothSolver:  Solving for Uy, Initial residual = 0.0103743, Final residual = 0.000386168, No Iterations 2
smoothSolver:  Solving for Uz, Initial residual = 0.0352646, Final residual = 0.00137234, No Iterations 2
GAMG:  Solving for p, Initial residual = 0.039988, Final residual = 0.00340206, No Iterations 2
time step continuity errors : sum local = 2.02882e-05, global = 2.2429e-06, cumulative = 7.30839e-06
smoothSolver:  Solving for omega, Initial residual = 0.000596137, Final residual = 4.41127e-05, No Iterations 1
smoothSolver:  Solving for k, Initial residual = 0.030803, Final residual = 0.00246654, No Iterations 1
ExecutionTime = 8.83 s  ClockTime = 8 s

forces forcesFish write:
    Sum of forces
        Total    : (0.0977714 0.00203477 0.000329633)
        Pressure : (0.0354117 0.00187768 0.000324998)
        Viscous  : (0.0623598 0.000157095 4.63495e-06)
    Sum of moments
        Total    : (-6.54712e-07 -0.000440832 0.00162525)
        Pressure : (-6.1482e-07 -0.000435919 0.00148814)
        Viscous  : (-3.98923e-08 -4.91289e-06 0.000137109)
    writing force and moment files.

Time = 14

smoothSolver:  Solving for Ux, Initial residual = 0.00052286, Final residual = 1.57377e-05, No Iterations 2
smoothSolver:  Solving for Uy, Initial residual = 0.0106709, Final residual = 0.000441933, No Iterations 2
smoothSolver:  Solving for Uz, Initial residual = 0.0398735, Final residual = 0.00173745, No Iterations 2
GAMG:  Solving for p, Initial residual = 0.039351, Final residual = 0.00291639, No Iterations 2
time step continuity errors : sum local = 1.50124e-05, global = 1.85599e-06, cumulative = 9.16437e-06
smoothSolver:  Solving for omega, Initial residual = 0.000513624, Final residual = 3.83015e-05, No Iterations 1
smoothSolver:  Solving for k, Initial residual = 0.0273441, Final residual = 0.00220826, No Iterations 1
ExecutionTime = 9.39 s  ClockTime = 9 s

forces forcesFish write:
    Sum of forces
        Total    : (0.122086 1.69048e-05 0.00127015)
        Pressure : (0.0605785 -0.000146845 0.00126407)
        Viscous  : (0.0615072 0.00016375 6.08453e-06)
    Sum of moments
        Total    : (-1.33682e-05 -0.000561995 0.0019437)
        Pressure : (-1.33563e-05 -0.000555842 0.00180829)
        Viscous  : (-1.18578e-08 -6.15319e-06 0.000135409)
    writing force and moment files.

Time = 15

smoothSolver:  Solving for Ux, Initial residual = 0.000480748, Final residual = 1.44261e-05, No Iterations 2
smoothSolver:  Solving for Uy, Initial residual = 0.0111322, Final residual = 0.000537494, No Iterations 2
smoothSolver:  Solving for Uz, Initial residual = 0.0419938, Final residual = 0.00219613, No Iterations 2
GAMG:  Solving for p, Initial residual = 0.0398767, Final residual = 0.00235994, No Iterations 2
time step continuity errors : sum local = 1.09754e-05, global = 1.50115e-06, cumulative = 1.06655e-05
smoothSolver:  Solving for omega, Initial residual = 0.000445136, Final residual = 3.34032e-05, No Iterations 1
smoothSolver:  Solving for k, Initial residual = 0.024458, Final residual = 0.00198977, No Iterations 1
ExecutionTime = 9.96 s  ClockTime = 10 s

forces forcesFish write:
    Sum of forces
        Total    : (0.131862 -0.00112625 0.00210047)
        Pressure : (0.0711654 -0.00129894 0.00209221)
        Viscous  : (0.0606969 0.00017269 8.26031e-06)
    Sum of moments
        Total    : (-2.38175e-05 -0.000648466 0.00211524)
        Pressure : (-2.38207e-05 -0.000640833 0.00198116)
        Viscous  : (3.15485e-09 -7.63231e-06 0.000134079)
    writing force and moment files.

Time = 16

smoothSolver:  Solving for Ux, Initial residual = 0.000447354, Final residual = 1.32019e-05, No Iterations 2
smoothSolver:  Solving for Uy, Initial residual = 0.0106104, Final residual = 0.000528645, No Iterations 2
smoothSolver:  Solving for Uz, Initial residual = 0.0377902, Final residual = 0.00205403, No Iterations 2
GAMG:  Solving for p, Initial residual = 0.0426646, Final residual = 0.00255689, No Iterations 2
time step continuity errors : sum local = 1.15381e-05, global = 9.73185e-07, cumulative = 1.16387e-05
smoothSolver:  Solving for omega, Initial residual = 0.00038763, Final residual = 2.92331e-05, No Iterations 1
smoothSolver:  Solving for k, Initial residual = 0.0219773, Final residual = 0.00179939, No Iterations 1
ExecutionTime = 10.49 s  ClockTime = 10 s

forces forcesFish write:
    Sum of forces
        Total    : (0.130397 -0.00147463 0.00260811)
        Pressure : (0.0704508 -0.00165689 0.00259785)
        Viscous  : (0.0599463 0.000182257 1.02592e-05)
    Sum of moments
        Total    : (-2.96488e-05 -0.000674772 0.00216122)
        Pressure : (-2.96592e-05 -0.000665888 0.00202783)
        Viscous  : (1.03688e-08 -8.88397e-06 0.000133385)
    writing force and moment files.

Time = 17

smoothSolver:  Solving for Ux, Initial residual = 0.000409069, Final residual = 1.17642e-05, No Iterations 2
smoothSolver:  Solving for Uy, Initial residual = 0.00915209, Final residual = 0.000435085, No Iterations 2
smoothSolver:  Solving for Uz, Initial residual = 0.0313618, Final residual = 0.00164293, No Iterations 2
GAMG:  Solving for p, Initial residual = 0.0423211, Final residual = 0.00247242, No Iterations 2
time step continuity errors : sum local = 1.14909e-05, global = 2.4992e-07, cumulative = 1.18886e-05
smoothSolver:  Solving for omega, Initial residual = 0.000338827, Final residual = 2.56397e-05, No Iterations 1
smoothSolver:  Solving for k, Initial residual = 0.0198629, Final residual = 0.00163537, No Iterations 1
ExecutionTime = 11.01 s  ClockTime = 11 s

forces forcesFish write:
    Sum of forces
        Total    : (0.122045 -0.00122364 0.0028246)
        Pressure : (0.0627761 -0.00141442 0.00281306)
        Viscous  : (0.0592686 0.000190776 1.15381e-05)
    Sum of moments
        Total    : (-3.04611e-05 -0.000649673 0.00212925)
        Pressure : (-3.04732e-05 -0.000640035 0.00199597)
        Viscous  : (1.21268e-08 -9.63861e-06 0.000133279)
    writing force and moment files.

Time = 18

smoothSolver:  Solving for Ux, Initial residual = 0.000369081, Final residual = 1.02594e-05, No Iterations 2
smoothSolver:  Solving for Uy, Initial residual = 0.00725007, Final residual = 0.000302277, No Iterations 2
smoothSolver:  Solving for Uz, Initial residual = 0.0247439, Final residual = 0.00113637, No Iterations 2
GAMG:  Solving for p, Initial residual = 0.0374733, Final residual = 0.00222255, No Iterations 2
time step continuity errors : sum local = 1.10738e-05, global = -4.14611e-07, cumulative = 1.1474e-05
smoothSolver:  Solving for omega, Initial residual = 0.000297172, Final residual = 2.25455e-05, No Iterations 1
smoothSolver:  Solving for k, Initial residual = 0.0180128, Final residual = 0.00149026, No Iterations 1
ExecutionTime = 11.52 s  ClockTime = 11 s

forces forcesFish write:
    Sum of forces
        Total    : (0.110538 -0.000556732 0.00269339)
        Pressure : (0.0518723 -0.000753496 0.00268103)
        Viscous  : (0.0586652 0.000196764 1.23565e-05)
    Sum of moments
        Total    : (-2.59101e-05 -0.000576704 0.00205681)
        Pressure : (-2.59199e-05 -0.000566729 0.00192343)
        Viscous  : (9.78118e-09 -9.97437e-06 0.000133386)
    writing force and moment files.

Time = 19

smoothSolver:  Solving for Ux, Initial residual = 0.000328599, Final residual = 8.83847e-06, No Iterations 2
smoothSolver:  Solving for Uy, Initial residual = 0.00548251, Final residual = 0.000172036, No Iterations 2
smoothSolver:  Solving for Uz, Initial residual = 0.0194774, Final residual = 0.000658189, No Iterations 2
GAMG:  Solving for p, Initial residual = 0.0309661, Final residual = 0.00189558, No Iterations 2
time step continuity errors : sum local = 1.02757e-05, global = -8.14515e-07, cumulative = 1.06595e-05
smoothSolver:  Solving for omega, Initial residual = 0.000261452, Final residual = 1.98774e-05, No Iterations 1
smoothSolver:  Solving for k, Initial residual = 0.016408, Final residual = 0.00136317, No Iterations 1
ExecutionTime = 12.08 s  ClockTime = 12 s

forces forcesFish write:
    Sum of forces
        Total    : (0.0992893 0.00028952 0.00224576)
        Pressure : (0.0411608 8.96965e-05 0.00223305)
        Viscous  : (0.0581285 0.000199823 1.27064e-05)
    Sum of moments
        Total    : (-1.72466e-05 -0.000468585 0.00197316)
        Pressure : (-1.7254e-05 -0.000458665 0.00183963)
        Viscous  : (7.39291e-09 -9.91978e-06 0.000133526)
    writing force and moment files.

Time = 20

smoothSolver:  Solving for Ux, Initial residual = 0.000285676, Final residual = 7.53147e-06, No Iterations 2
smoothSolver:  Solving for Uy, Initial residual = 0.00461442, Final residual = 0.000125235, No Iterations 2
smoothSolver:  Solving for Uz, Initial residual = 0.0178352, Final residual = 0.000537732, No Iterations 2
GAMG:  Solving for p, Initial residual = 0.0249903, Final residual = 0.00153968, No Iterations 2
time step continuity errors : sum local = 9.00543e-06, global = -1.21027e-06, cumulative = 9.44924e-06
smoothSolver:  Solving for omega, Initial residual = 0.000230695, Final residual = 1.75695e-05, No Iterations 1
smoothSolver:  Solving for k, Initial residual = 0.014985, Final residual = 0.00124932, No Iterations 1
ExecutionTime = 12.6 s  ClockTime = 12 s

forces forcesFish write:
    Sum of forces
        Total    : (0.0905632 0.00109338 0.00159902)
        Pressure : (0.0329162 0.000892986 0.00158641)
        Viscous  : (0.057647 0.000200392 1.26116e-05)
    Sum of moments
        Total    : (-6.81701e-06 -0.000345764 0.00189527)
        Pressure : (-6.8236e-06 -0.000336208 0.00176172)
        Viscous  : (6.584e-09 -9.5562e-06 0.000133547)
    writing force and moment files.

Time = 21

smoothSolver:  Solving for Ux, Initial residual = 0.000245923, Final residual = 6.55777e-06, No Iterations 2
smoothSolver:  Solving for Uy, Initial residual = 0.00431599, Final residual = 0.000138108, No Iterations 2
smoothSolver:  Solving for Uz, Initial residual = 0.0183418, Final residual = 0.00067095, No Iterations 2
GAMG:  Solving for p, Initial residual = 0.0208092, Final residual = 0.00124936, No Iterations 2
time step continuity errors : sum local = 7.71996e-06, global = -1.50127e-06, cumulative = 7.94797e-06
smoothSolver:  Solving for omega, Initial residual = 0.000204051, Final residual = 1.55619e-05, No Iterations 1
smoothSolver:  Solving for k, Initial residual = 0.0137301, Final residual = 0.00114794, No Iterations 1
ExecutionTime = 13.13 s  ClockTime = 13 s

forces forcesFish write:
    Sum of forces
        Total    : (0.0852994 0.00169042 0.000917507)
        Pressure : (0.0280911 0.0014909 0.000905077)
        Viscous  : (0.0572083 0.000199521 1.24302e-05)
    Sum of moments
        Total    : (2.73521e-06 -0.000231654 0.00182956)
        Pressure : (2.72677e-06 -0.000222563 0.00169608)
        Viscous  : (8.44006e-09 -9.0913e-06 0.00013348)
    writing force and moment files.

Time = 22

smoothSolver:  Solving for Ux, Initial residual = 0.000217589, Final residual = 5.8947e-06, No Iterations 2
smoothSolver:  Solving for Uy, Initial residual = 0.00413017, Final residual = 0.000148812, No Iterations 2
smoothSolver:  Solving for Uz, Initial residual = 0.0186954, Final residual = 0.000773386, No Iterations 2
GAMG:  Solving for p, Initial residual = 0.0187153, Final residual = 0.00113658, No Iterations 2
time step continuity errors : sum local = 7.23371e-06, global = -1.71981e-06, cumulative = 6.22815e-06
smoothSolver:  Solving for omega, Initial residual = 0.000180826, Final residual = 1.38077e-05, No Iterations 1
smoothSolver:  Solving for k, Initial residual = 0.0126038, Final residual = 0.00105604, No Iterations 1
ExecutionTime = 13.69 s  ClockTime = 13 s

forces forcesFish write:
    Sum of forces
        Total    : (0.0832407 0.00200491 0.000353598)
        Pressure : (0.0264399 0.00180673 0.000341565)
        Viscous  : (0.0568007 0.00019818 1.20332e-05)
    Sum of moments
        Total    : (9.44444e-06 -0.000145823 0.0017763)
        Pressure : (9.43087e-06 -0.000137293 0.00164297)
        Viscous  : (1.35737e-08 -8.52975e-06 0.000133329)
    writing force and moment files.

Time = 23

smoothSolver:  Solving for Ux, Initial residual = 0.000201127, Final residual = 5.31338e-06, No Iterations 2
smoothSolver:  Solving for Uy, Initial residual = 0.00386483, Final residual = 0.000141402, No Iterations 2
smoothSolver:  Solving for Uz, Initial residual = 0.0180733, Final residual = 0.000763025, No Iterations 2
GAMG:  Solving for p, Initial residual = 0.0179286, Final residual = 0.00104185, No Iterations 2
time step continuity errors : sum local = 6.67699e-06, global = -1.74882e-06, cumulative = 4.47933e-06
smoothSolver:  Solving for omega, Initial residual = 0.000160488, Final residual = 1.22718e-05, No Iterations 1
smoothSolver:  Solving for k, Initial residual = 0.0115948, Final residual = 0.000972931, No Iterations 1
ExecutionTime = 14.24 s  ClockTime = 14 s

forces forcesFish write:
    Sum of forces
        Total    : (0.0833573 0.0020546 -7.73793e-05)
        Pressure : (0.0269434 0.00185725 -8.92756e-05)
        Viscous  : (0.0564139 0.000197347 1.18963e-05)
    Sum of moments
        Total    : (1.30383e-05 -8.60975e-05 0.00172826)
        Pressure : (1.30184e-05 -7.79465e-05 0.00159506)
        Viscous  : (1.99017e-08 -8.15105e-06 0.000133204)
    writing force and moment files.

Time = 24

smoothSolver:  Solving for Ux, Initial residual = 0.000189783, Final residual = 4.77596e-06, No Iterations 2
smoothSolver:  Solving for Uy, Initial residual = 0.00350487, Final residual = 0.000118742, No Iterations 2
smoothSolver:  Solving for Uz, Initial residual = 0.016435, Final residual = 0.000643883, No Iterations 2
GAMG:  Solving for p, Initial residual = 0.0172546, Final residual = 0.000928694, No Iterations 2
time step continuity errors : sum local = 5.89672e-06, global = -1.62929e-06, cumulative = 2.85005e-06
smoothSolver:  Solving for omega, Initial residual = 0.000142568, Final residual = 1.09093e-05, No Iterations 1
smoothSolver:  Solving for k, Initial residual = 0.0106797, Final residual = 0.000896881, No Iterations 1
ExecutionTime = 14.78 s  ClockTime = 14 s

forces forcesFish write:
    Sum of forces
        Total    : (0.0847315 0.00186266 -0.000345501)
        Pressure : (0.0286899 0.00166512 -0.000356762)
        Viscous  : (0.0560417 0.000197534 1.12609e-05)
    Sum of moments
        Total    : (1.31941e-05 -5.37966e-05 0.00167711)
        Pressure : (1.31635e-05 -4.61018e-05 0.00154393)
        Viscous  : (3.05645e-08 -7.69486e-06 0.000133175)
    writing force and moment files.

Time = 25

smoothSolver:  Solving for Ux, Initial residual = 0.000185073, Final residual = 4.34401e-06, No Iterations 2
smoothSolver:  Solving for Uy, Initial residual = 0.00310909, Final residual = 8.85184e-05, No Iterations 2
smoothSolver:  Solving for Uz, Initial residual = 0.0143595, Final residual = 0.000462826, No Iterations 2
GAMG:  Solving for p, Initial residual = 0.0166919, Final residual = 0.000855402, No Iterations 2
time step continuity errors : sum local = 5.31558e-06, global = -1.40938e-06, cumulative = 1.44067e-06
smoothSolver:  Solving for omega, Initial residual = 0.000126707, Final residual = 9.69732e-06, No Iterations 1
smoothSolver:  Solving for k, Initial residual = 0.00984897, Final residual = 0.000827276, No Iterations 1
ExecutionTime = 15.31 s  ClockTime = 15 s

forces forcesFish write:
    Sum of forces
        Total    : (0.0864861 0.00148893 -0.000412877)
        Pressure : (0.0308058 0.00128973 -0.000423825)
        Viscous  : (0.0556803 0.000199193 1.09484e-05)
    Sum of moments
        Total    : (1.01378e-05 -5.19235e-05 0.00162072)
        Pressure : (1.00982e-05 -4.44161e-05 0.00148738)
        Viscous  : (3.96244e-08 -7.50742e-06 0.000133348)
    writing force and moment files.

Time = 26

smoothSolver:  Solving for Ux, Initial residual = 0.000179847, Final residual = 3.96596e-06, No Iterations 2
smoothSolver:  Solving for Uy, Initial residual = 0.00274303, Final residual = 6.66732e-05, No Iterations 2
smoothSolver:  Solving for Uz, Initial residual = 0.0126689, Final residual = 0.000323828, No Iterations 2
GAMG:  Solving for p, Initial residual = 0.0157579, Final residual = 0.000795379, No Iterations 2
time step continuity errors : sum local = 4.80467e-06, global = -1.13651e-06, cumulative = 3.0416e-07
smoothSolver:  Solving for omega, Initial residual = 0.000112615, Final residual = 8.61772e-06, No Iterations 1
smoothSolver:  Solving for k, Initial residual = 0.00908968, Final residual = 0.000763193, No Iterations 1
ExecutionTime = 15.83 s  ClockTime = 15 s

forces forcesFish write:
    Sum of forces
        Total    : (0.0879432 0.00102291 -0.000291705)
        Pressure : (0.0326126 0.000820713 -0.000301788)
        Viscous  : (0.0553306 0.000202195 1.00834e-05)
    Sum of moments
        Total    : (4.9452e-06 -7.74235e-05 0.00156172)
        Pressure : (4.89437e-06 -7.01847e-05 0.00142806)
        Viscous  : (5.08326e-08 -7.23874e-06 0.000133659)
    writing force and moment files.

Time = 27

smoothSolver:  Solving for Ux, Initial residual = 0.000171144, Final residual = 3.60921e-06, No Iterations 2
smoothSolver:  Solving for Uy, Initial residual = 0.00242302, Final residual = 5.71305e-05, No Iterations 2
smoothSolver:  Solving for Uz, Initial residual = 0.0116218, Final residual = 0.000277833, No Iterations 2
GAMG:  Solving for p, Initial residual = 0.0144761, Final residual = 0.000708844, No Iterations 2
time step continuity errors : sum local = 4.16312e-06, global = -8.13584e-07, cumulative = -5.09424e-07
smoothSolver:  Solving for omega, Initial residual = 0.000100049, Final residual = 7.6549e-06, No Iterations 1
smoothSolver:  Solving for k, Initial residual = 0.00839284, Final residual = 0.000703995, No Iterations 1
ExecutionTime = 16.35 s  ClockTime = 16 s

forces forcesFish write:
    Sum of forces
        Total    : (0.0887304 0.000557475 -3.9743e-05)
        Pressure : (0.0337371 0.000351245 -4.91486e-05)
        Viscous  : (0.0549933 0.000206231 9.40552e-06)
    Sum of moments
        Total    : (-8.81495e-07 -0.000121121 0.0015057)
        Pressure : (-9.40921e-07 -0.000113974 0.00137157)
        Viscous  : (5.94267e-08 -7.14664e-06 0.000134125)
    writing force and moment files.

Time = 28

smoothSolver:  Solving for Ux, Initial residual = 0.000159646, Final residual = 3.27807e-06, No Iterations 2
smoothSolver:  Solving for Uy, Initial residual = 0.00213153, Final residual = 5.35192e-05, No Iterations 2
smoothSolver:  Solving for Uz, Initial residual = 0.0106649, Final residual = 0.00027585, No Iterations 2
GAMG:  Solving for p, Initial residual = 0.0132201, Final residual = 0.000639723, No Iterations 2
time step continuity errors : sum local = 3.6736e-06, global = -5.0782e-07, cumulative = -1.01724e-06
smoothSolver:  Solving for omega, Initial residual = 8.88124e-05, Final residual = 6.79507e-06, No Iterations 1
smoothSolver:  Solving for k, Initial residual = 0.00775188, Final residual = 0.000649224, No Iterations 1
ExecutionTime = 16.89 s  ClockTime = 17 s

forces forcesFish write:
    Sum of forces
        Total    : (0.0887791 0.00016663 0.000261281)
        Pressure : (0.0341088 -4.40225e-05 0.000252675)
        Viscous  : (0.0546702 0.000210652 8.60642e-06)
    Sum of moments
        Total    : (-5.92415e-06 -0.000170657 0.00145826)
        Pressure : (-5.99132e-06 -0.000163632 0.00132365)
        Viscous  : (6.71716e-08 -7.02507e-06 0.000134606)
    writing force and moment files.

Time = 29

smoothSolver:  Solving for Ux, Initial residual = 0.000146354, Final residual = 2.97313e-06, No Iterations 2
smoothSolver:  Solving for Uy, Initial residual = 0.00187044, Final residual = 4.94173e-05, No Iterations 2
smoothSolver:  Solving for Uz, Initial residual = 0.00966893, Final residual = 0.000265857, No Iterations 2
GAMG:  Solving for p, Initial residual = 0.0122816, Final residual = 0.000626379, No Iterations 2
time step continuity errors : sum local = 3.54863e-06, global = -1.5334e-07, cumulative = -1.17058e-06
smoothSolver:  Solving for omega, Initial residual = 7.87322e-05, Final residual = 6.02353e-06, No Iterations 1
smoothSolver:  Solving for k, Initial residual = 0.00715851, Final residual = 0.000598255, No Iterations 1
ExecutionTime = 17.43 s  ClockTime = 17 s

forces forcesFish write:
    Sum of forces
        Total    : (0.0882358 -0.000121318 0.000545701)
        Pressure : (0.0338732 -0.000336375 0.000537707)
        Viscous  : (0.0543626 0.000215057 7.99487e-06)
    Sum of moments
        Total    : (-9.40266e-06 -0.00021654 0.00142055)
        Pressure : (-9.47518e-06 -0.000209567 0.00128547)
        Viscous  : (7.25207e-08 -6.97225e-06 0.000135076)
    writing force and moment files.

Time = 30

smoothSolver:  Solving for Ux, Initial residual = 0.000135061, Final residual = 2.71715e-06, No Iterations 2
smoothSolver:  Solving for Uy, Initial residual = 0.00163595, Final residual = 4.2608e-05, No Iterations 2
smoothSolver:  Solving for Uz, Initial residual = 0.00857682, Final residual = 0.000230094, No Iterations 2
GAMG:  Solving for p, Initial residual = 0.0113429, Final residual = 0.00060099, No Iterations 2
time step continuity errors : sum local = 3.38676e-06, global = 1.72337e-07, cumulative = -9.98246e-07
smoothSolver:  Solving for omega, Initial residual = 6.96775e-05, Final residual = 5.33235e-06, No Iterations 1
smoothSolver:  Solving for k, Initial residual = 0.00660938, Final residual = 0.000550863, No Iterations 1
ExecutionTime = 17.95 s  ClockTime = 18 s

forces forcesFish write:
    Sum of forces
        Total    : (0.0873182 -0.000315624 0.000785115)
        Pressure : (0.0332464 -0.000534603 0.000777662)
        Viscous  : (0.0540718 0.000218979 7.45345e-06)
    Sum of moments
        Total    : (-1.11306e-05 -0.000254978 0.00139039)
        Pressure : (-1.12073e-05 -0.000248071 0.00125493)
        Viscous  : (7.67458e-08 -6.90771e-06 0.000135454)
    writing force and moment files.

Time = 31

smoothSolver:  Solving for Ux, Initial residual = 0.000127675, Final residual = 2.51968e-06, No Iterations 2
smoothSolver:  Solving for Uy, Initial residual = 0.00145411, Final residual = 3.41815e-05, No Iterations 2
smoothSolver:  Solving for Uz, Initial residual = 0.00761157, Final residual = 0.000177252, No Iterations 2
GAMG:  Solving for p, Initial residual = 0.010438, Final residual = 0.000552149, No Iterations 2
time step continuity errors : sum local = 3.11385e-06, global = 3.95209e-07, cumulative = -6.03038e-07
smoothSolver:  Solving for omega, Initial residual = 6.15397e-05, Final residual = 4.71386e-06, No Iterations 1
smoothSolver:  Solving for k, Initial residual = 0.00609725, Final residual = 0.000506479, No Iterations 1
ExecutionTime = 18.49 s  ClockTime = 18 s

forces forcesFish write:
    Sum of forces
        Total    : (0.0862443 -0.000426663 0.000952257)
        Pressure : (0.0324457 -0.0006488 0.000945239)
        Viscous  : (0.0537986 0.000222137 7.01831e-06)
    Sum of moments
        Total    : (-1.10851e-05 -0.000281772 0.00136729)
        Pressure : (-1.11641e-05 -0.000274922 0.00123158)
        Viscous  : (7.90009e-08 -6.85028e-06 0.000135707)
    writing force and moment files.

Time = 32

smoothSolver:  Solving for Ux, Initial residual = 0.00012086, Final residual = 2.34934e-06, No Iterations 2
smoothSolver:  Solving for Uy, Initial residual = 0.00135091, Final residual = 2.76243e-05, No Iterations 2
smoothSolver:  Solving for Uz, Initial residual = 0.00697453, Final residual = 0.000133826, No Iterations 2
GAMG:  Solving for p, Initial residual = 0.00956436, Final residual = 0.000503713, No Iterations 2
time step continuity errors : sum local = 2.85455e-06, global = 5.50023e-07, cumulative = -5.3015e-08
smoothSolver:  Solving for omega, Initial residual = 5.42176e-05, Final residual = 4.16014e-06, No Iterations 1
smoothSolver:  Solving for k, Initial residual = 0.00561996, Final residual = 0.000464961, No Iterations 1
ExecutionTime = 19.03 s  ClockTime = 19 s

forces forcesFish write:
    Sum of forces
        Total    : (0.0852 -0.000472276 0.00102807)
        Pressure : (0.0316573 -0.000696604 0.00102141)
        Viscous  : (0.0535428 0.000224328 6.66363e-06)
    Sum of moments
        Total    : (-9.56049e-06 -0.000293559 0.00135023)
        Pressure : (-9.64034e-06 -0.000286778 0.00121442)
        Viscous  : (7.98516e-08 -6.78056e-06 0.000135812)
    writing force and moment files.

Time = 33

smoothSolver:  Solving for Ux, Initial residual = 0.000112502, Final residual = 2.17936e-06, No Iterations 2
smoothSolver:  Solving for Uy, Initial residual = 0.00128383, Final residual = 2.37537e-05, No Iterations 2
smoothSolver:  Solving for Uz, Initial residual = 0.00662909, Final residual = 0.000117724, No Iterations 2
GAMG:  Solving for p, Initial residual = 0.00870945, Final residual = 0.000464351, No Iterations 2
time step continuity errors : sum local = 2.64849e-06, global = 6.13952e-07, cumulative = 5.60937e-07
smoothSolver:  Solving for omega, Initial residual = 4.7628e-05, Final residual = 3.66383e-06, No Iterations 1
smoothSolver:  Solving for k, Initial residual = 0.00517174, Final residual = 0.000425863, No Iterations 1
ExecutionTime = 19.66 s  ClockTime = 19 s

forces forcesFish write:
    Sum of forces
        Total    : (0.0843043 -0.000478907 0.00101373)
        Pressure : (0.0310015 -0.00070452 0.00100732)
        Viscous  : (0.0533028 0.000225613 6.41486e-06)
    Sum of moments
        Total    : (-7.1381e-06 -0.000290081 0.00133671)
        Pressure : (-7.21782e-06 -0.000283375 0.00120094)
        Viscous  : (7.9715e-08 -6.70591e-06 0.000135774)
    writing force and moment files.

Time = 34

smoothSolver:  Solving for Ux, Initial residual = 0.000102056, Final residual = 2.00525e-06, No Iterations 2
smoothSolver:  Solving for Uy, Initial residual = 0.00120576, Final residual = 2.16721e-05, No Iterations 2
smoothSolver:  Solving for Uz, Initial residual = 0.00638374, Final residual = 0.000116167, No Iterations 2
GAMG:  Solving for p, Initial residual = 0.00794537, Final residual = 0.000426691, No Iterations 2
time step continuity errors : sum local = 2.44792e-06, global = 5.9178e-07, cumulative = 1.15272e-06
smoothSolver:  Solving for omega, Initial residual = 4.16993e-05, Final residual = 3.21935e-06, No Iterations 1
smoothSolver:  Solving for k, Initial residual = 0.00475066, Final residual = 0.000389067, No Iterations 1
ExecutionTime = 20.25 s  ClockTime = 20 s

forces forcesFish write:
    Sum of forces
        Total    : (0.0836036 -0.000474463 0.000928065)
        Pressure : (0.0305267 -0.000700727 0.000921815)
        Viscous  : (0.0530769 0.000226265 6.25038e-06)
    Sum of moments
        Total    : (-4.48766e-06 -0.00027404 0.0013236)
        Pressure : (-4.56687e-06 -0.000267417 0.00118795)
        Viscous  : (7.92154e-08 -6.62382e-06 0.000135643)
    writing force and moment files.

Time = 35

smoothSolver:  Solving for Ux, Initial residual = 8.96383e-05, Final residual = 1.82933e-06, No Iterations 2
smoothSolver:  Solving for Uy, Initial residual = 0.00111081, Final residual = 2.06563e-05, No Iterations 2
smoothSolver:  Solving for Uz, Initial residual = 0.00606577, Final residual = 0.000117707, No Iterations 2
GAMG:  Solving for p, Initial residual = 0.0073201, Final residual = 0.000379902, No Iterations 2
time step continuity errors : sum local = 2.18792e-06, global = 5.3213e-07, cumulative = 1.68485e-06
smoothSolver:  Solving for omega, Initial residual = 3.63717e-05, Final residual = 2.82191e-06, No Iterations 1
smoothSolver:  Solving for k, Initial residual = 0.00435298, Final residual = 0.00035431, No Iterations 1
ExecutionTime = 20.86 s  ClockTime = 20 s

forces forcesFish write:
    Sum of forces
        Total    : (0.0830886 -0.000481957 0.000800062)
        Pressure : (0.0302248 -0.000708549 0.000793845)
        Viscous  : (0.0528638 0.000226593 6.21713e-06)
    Sum of moments
        Total    : (-2.18876e-06 -0.000250118 0.00130804)
        Pressure : (-2.26771e-06 -0.000243566 0.00117255)
        Viscous  : (7.89495e-08 -6.55246e-06 0.000135492)
    writing force and moment files.

Time = 36

smoothSolver:  Solving for Ux, Initial residual = 7.77674e-05, Final residual = 1.65776e-06, No Iterations 2
smoothSolver:  Solving for Uy, Initial residual = 0.0010045, Final residual = 1.95951e-05, No Iterations 2
smoothSolver:  Solving for Uz, Initial residual = 0.00562787, Final residual = 0.000112294, No Iterations 2
GAMG:  Solving for p, Initial residual = 0.00679918, Final residual = 0.000341989, No Iterations 2
time step continuity errors : sum local = 1.97219e-06, global = 4.87028e-07, cumulative = 2.17187e-06
smoothSolver:  Solving for omega, Initial residual = 3.15927e-05, Final residual = 2.46734e-06, No Iterations 1
smoothSolver:  Solving for k, Initial residual = 0.00397666, Final residual = 0.000321479, No Iterations 1
ExecutionTime = 21.42 s  ClockTime = 21 s

forces forcesFish write:
    Sum of forces
        Total    : (0.0827178 -0.000516167 0.000662498)
        Pressure : (0.0300563 -0.00074293 0.000656257)
        Viscous  : (0.0526616 0.000226763 6.2409e-06)
    Sum of moments
        Total    : (-6.28255e-07 -0.000224 0.0012882)
        Pressure : (-7.07356e-07 -0.000217507 0.00115287)
        Viscous  : (7.9101e-08 -6.4929e-06 0.000135323)
    writing force and moment files.

Time = 37

smoothSolver:  Solving for Ux, Initial residual = 6.96273e-05, Final residual = 1.51109e-06, No Iterations 2
smoothSolver:  Solving for Uy, Initial residual = 0.000905203, Final residual = 1.79133e-05, No Iterations 2
smoothSolver:  Solving for Uz, Initial residual = 0.00511122, Final residual = 9.7626e-05, No Iterations 2
GAMG:  Solving for p, Initial residual = 0.00636324, Final residual = 0.00030708, No Iterations 2
time step continuity errors : sum local = 1.76905e-06, global = 4.27358e-07, cumulative = 2.59923e-06
smoothSolver:  Solving for omega, Initial residual = 2.73193e-05, Final residual = 2.15237e-06, No Iterations 1
smoothSolver:  Solving for k, Initial residual = 0.00362028, Final residual = 0.000290516, No Iterations 1
ExecutionTime = 21.98 s  ClockTime = 22 s

forces forcesFish write:
    Sum of forces
        Total    : (0.0824395 -0.000582318 0.000541881)
        Pressure : (0.0299701 -0.00080931 0.000535613)
        Viscous  : (0.0524694 0.000226992 6.26873e-06)
    Sum of moments
        Total    : (5.70828e-08 -0.000200464 0.00126344)
        Pressure : (-2.27054e-08 -0.000194026 0.00112826)
        Viscous  : (7.97882e-08 -6.438e-06 0.000135184)
    writing force and moment files.

Time = 38

smoothSolver:  Solving for Ux, Initial residual = 6.59742e-05, Final residual = 1.40184e-06, No Iterations 2
smoothSolver:  Solving for Uy, Initial residual = 0.000824229, Final residual = 1.60858e-05, No Iterations 2
smoothSolver:  Solving for Uz, Initial residual = 0.00464151, Final residual = 0.00046243, No Iterations 1
GAMG:  Solving for p, Initial residual = 0.00591616, Final residual = 0.000274176, No Iterations 2
time step continuity errors : sum local = 1.57544e-06, global = 3.38248e-07, cumulative = 2.93748e-06
smoothSolver:  Solving for omega, Initial residual = 2.35136e-05, Final residual = 1.87402e-06, No Iterations 1
smoothSolver:  Solving for k, Initial residual = 0.00328152, Final residual = 0.000261288, No Iterations 1
ExecutionTime = 22.59 s  ClockTime = 22 s

forces forcesFish write:
    Sum of forces
        Total    : (0.0821995 -0.000674704 0.000453139)
        Pressure : (0.0299132 -0.000902073 0.000446894)
        Viscous  : (0.0522863 0.000227369 6.24445e-06)
    Sum of moments
        Total    : (-1.5268e-08 -0.00018267 0.00123479)
        Pressure : (-9.53348e-08 -0.000176272 0.00109971)
        Viscous  : (8.00668e-08 -6.39766e-06 0.000135087)
    writing force and moment files.

Time = 39

smoothSolver:  Solving for Ux, Initial residual = 6.40646e-05, Final residual = 1.31716e-06, No Iterations 2
smoothSolver:  Solving for Uy, Initial residual = 0.000763191, Final residual = 1.44849e-05, No Iterations 2
smoothSolver:  Solving for Uz, Initial residual = 0.00433418, Final residual = 0.000413037, No Iterations 1
GAMG:  Solving for p, Initial residual = 0.00551365, Final residual = 0.000252652, No Iterations 2
time step continuity errors : sum local = 1.44754e-06, global = 2.42481e-07, cumulative = 3.17996e-06
smoothSolver:  Solving for omega, Initial residual = 2.01434e-05, Final residual = 1.62986e-06, No Iterations 1
smoothSolver:  Solving for k, Initial residual = 0.00296128, Final residual = 0.000233918, No Iterations 1
ExecutionTime = 23.16 s  ClockTime = 23 s

forces forcesFish write:
    Sum of forces
        Total    : (0.0819725 -0.000786185 0.000403137)
        Pressure : (0.0298606 -0.00101408 0.000396949)
        Viscous  : (0.052112 0.000227895 6.18799e-06)
    Sum of moments
        Total    : (-6.57341e-07 -0.00017203 0.00120364)
        Pressure : (-7.37976e-07 -0.000165671 0.00106861)
        Viscous  : (8.06348e-08 -6.35899e-06 0.00013503)
    writing force and moment files.

Time = 40

smoothSolver:  Solving for Ux, Initial residual = 6.18155e-05, Final residual = 1.23808e-06, No Iterations 2
smoothSolver:  Solving for Uy, Initial residual = 0.000726934, Final residual = 1.32131e-05, No Iterations 2
smoothSolver:  Solving for Uz, Initial residual = 0.00405422, Final residual = 0.000378027, No Iterations 1
GAMG:  Solving for p, Initial residual = 0.00514216, Final residual = 0.000242787, No Iterations 2
time step continuity errors : sum local = 1.38758e-06, global = 1.59208e-07, cumulative = 3.33917e-06
smoothSolver:  Solving for omega, Initial residual = 1.71798e-05, Final residual = 1.41751e-06, No Iterations 1
smoothSolver:  Solving for k, Initial residual = 0.00265714, Final residual = 0.000208252, No Iterations 1
ExecutionTime = 23.74 s  ClockTime = 23 s

forces forcesFish write:
    Sum of forces
        Total    : (0.0817454 -0.000906926 0.000390924)
        Pressure : (0.0297993 -0.00113546 0.000384837)
        Viscous  : (0.0519462 0.00022853 6.08782e-06)
    Sum of moments
        Total    : (-1.62212e-06 -0.000168552 0.00117173)
        Pressure : (-1.7036e-06 -0.000162231 0.00103674)
        Viscous  : (8.14813e-08 -6.32067e-06 0.000134991)
    writing force and moment files.

Time = 41

smoothSolver:  Solving for Ux, Initial residual = 5.83725e-05, Final residual = 1.1562e-06, No Iterations 2
smoothSolver:  Solving for Uy, Initial residual = 0.000697082, Final residual = 6.95597e-05, No Iterations 1
smoothSolver:  Solving for Uz, Initial residual = 0.00378722, Final residual = 0.0003511, No Iterations 1
GAMG:  Solving for p, Initial residual = 0.00480653, Final residual = 0.00023355, No Iterations 2
time step continuity errors : sum local = 1.33283e-06, global = 1.02316e-07, cumulative = 3.44149e-06
smoothSolver:  Solving for omega, Initial residual = 1.45939e-05, Final residual = 1.23431e-06, No Iterations 1
smoothSolver:  Solving for k, Initial residual = 0.00237103, Final residual = 0.000184463, No Iterations 1
ExecutionTime = 24.31 s  ClockTime = 24 s

forces forcesFish write:
    Sum of forces
        Total    : (0.0815086 -0.00102803 0.000408711)
        Pressure : (0.02972 -0.00125709 0.000402765)
        Viscous  : (0.0517886 0.000229063 5.94595e-06)
    Sum of moments
        Total    : (-2.64174e-06 -0.000170923 0.00114005)
        Pressure : (-2.72498e-06 -0.000164647 0.00100521)
        Viscous  : (8.32335e-08 -6.27612e-06 0.000134849)
    writing force and moment files.

Time = 42

smoothSolver:  Solving for Ux, Initial residual = 5.38027e-05, Final residual = 1.06946e-06, No Iterations 2
smoothSolver:  Solving for Uy, Initial residual = 0.000670822, Final residual = 6.66183e-05, No Iterations 1
smoothSolver:  Solving for Uz, Initial residual = 0.00354023, Final residual = 0.000327193, No Iterations 1
GAMG:  Solving for p, Initial residual = 0.00449639, Final residual = 0.000210321, No Iterations 2
time step continuity errors : sum local = 1.19989e-06, global = 6.53397e-08, cumulative = 3.50683e-06
smoothSolver:  Solving for omega, Initial residual = 1.23565e-05, Final residual = 1.07785e-06, No Iterations 1
smoothSolver:  Solving for k, Initial residual = 0.00210255, Final residual = 0.00016252, No Iterations 1
ExecutionTime = 24.98 s  ClockTime = 25 s

forces forcesFish write:
    Sum of forces
        Total    : (0.0812694 -0.00113935 0.00044666)
        Pressure : (0.0296308 -0.00136891 0.000440886)
        Viscous  : (0.0516386 0.000229566 5.77374e-06)
    Sum of moments
        Total    : (-3.53396e-06 -0.000177406 0.0011109)
        Pressure : (-3.61906e-06 -0.000171177 0.0009762)
        Viscous  : (8.50995e-08 -6.22916e-06 0.000134703)
    writing force and moment files.

Time = 43

smoothSolver:  Solving for Ux, Initial residual = 4.92058e-05, Final residual = 9.85107e-07, No Iterations 2
smoothSolver:  Solving for Uy, Initial residual = 0.000632542, Final residual = 6.27081e-05, No Iterations 1
smoothSolver:  Solving for Uz, Initial residual = 0.00331085, Final residual = 0.000304809, No Iterations 1
GAMG:  Solving for p, Initial residual = 0.00420972, Final residual = 0.000191737, No Iterations 2
time step continuity errors : sum local = 1.09477e-06, global = 4.8887e-08, cumulative = 3.55571e-06
smoothSolver:  Solving for omega, Initial residual = 1.04365e-05, Final residual = 9.45134e-07, No Iterations 1
smoothSolver:  Solving for k, Initial residual = 0.00185206, Final residual = 0.000142428, No Iterations 1
ExecutionTime = 25.55 s  ClockTime = 25 s

forces forcesFish write:
    Sum of forces
        Total    : (0.0810377 -0.00123217 0.000492406)
        Pressure : (0.0295415 -0.0014621 0.000486818)
        Viscous  : (0.0514962 0.000229929 5.58825e-06)
    Sum of moments
        Total    : (-4.17105e-06 -0.000185664 0.00108625)
        Pressure : (-4.25793e-06 -0.000179483 0.000951725)
        Viscous  : (8.68854e-08 -6.18005e-06 0.000134528)
    writing force and moment files.

Time = 44

smoothSolver:  Solving for Ux, Initial residual = 4.54456e-05, Final residual = 9.13535e-07, No Iterations 2
smoothSolver:  Solving for Uy, Initial residual = 0.00058927, Final residual = 5.80016e-05, No Iterations 1
smoothSolver:  Solving for Uz, Initial residual = 0.00309573, Final residual = 0.00028089, No Iterations 1
GAMG:  Solving for p, Initial residual = 0.00393476, Final residual = 0.000172894, No Iterations 2
time step continuity errors : sum local = 9.88716e-07, global = -8.85969e-09, cumulative = 3.54685e-06
smoothSolver:  Solving for omega, Initial residual = 8.8042e-06, Final residual = 8.33376e-07, No Iterations 1
smoothSolver:  Solving for k, Initial residual = 0.00162072, Final residual = 0.000124229, No Iterations 1
ExecutionTime = 26.08 s  ClockTime = 26 s

forces forcesFish write:
    Sum of forces
        Total    : (0.0808191 -0.00130374 0.000535108)
        Pressure : (0.0294579 -0.00153402 0.000529659)
        Viscous  : (0.0513612 0.000230278 5.44874e-06)
    Sum of moments
        Total    : (-4.51522e-06 -0.000193562 0.00106664)
        Pressure : (-4.60324e-06 -0.000187413 0.000932257)
        Viscous  : (8.80187e-08 -6.14904e-06 0.00013438)
    writing force and moment files.

Time = 45

smoothSolver:  Solving for Ux, Initial residual = 4.3389e-05, Final residual = 8.58285e-07, No Iterations 2
smoothSolver:  Solving for Uy, Initial residual = 0.000544776, Final residual = 5.29559e-05, No Iterations 1
smoothSolver:  Solving for Uz, Initial residual = 0.00288888, Final residual = 0.000256191, No Iterations 1
GAMG:  Solving for p, Initial residual = 0.0036828, Final residual = 0.000158643, No Iterations 2
time step continuity errors : sum local = 9.09108e-07, global = -5.94557e-08, cumulative = 3.4874e-06
smoothSolver:  Solving for omega, Initial residual = 7.4286e-06, Final residual = 7.39328e-07, No Iterations 1
smoothSolver:  Solving for k, Initial residual = 0.00140842, Final residual = 0.000107853, No Iterations 1
ExecutionTime = 26.59 s  ClockTime = 26 s

forces forcesFish write:
    Sum of forces
        Total    : (0.0806152 -0.00135562 0.000567807)
        Pressure : (0.029382 -0.00158601 0.000562525)
        Viscous  : (0.0512331 0.000230391 5.28134e-06)
    Sum of moments
        Total    : (-4.59685e-06 -0.000199666 0.00105162)
        Pressure : (-4.68636e-06 -0.000193557 0.000917445)
        Viscous  : (8.95076e-08 -6.10983e-06 0.000134174)
    writing force and moment files.

Time = 46

smoothSolver:  Solving for Ux, Initial residual = 4.23749e-05, Final residual = 8.15544e-07, No Iterations 2
smoothSolver:  Solving for Uy, Initial residual = 0.000500877, Final residual = 4.81369e-05, No Iterations 1
smoothSolver:  Solving for Uz, Initial residual = 0.00268055, Final residual = 0.000232667, No Iterations 1
GAMG:  Solving for p, Initial residual = 0.00344652, Final residual = 0.00014633, No Iterations 2
time step continuity errors : sum local = 8.40428e-07, global = -9.49046e-08, cumulative = 3.39249e-06
smoothSolver:  Solving for omega, Initial residual = 6.28006e-06, Final residual = 1.15899e-07, No Iterations 2
smoothSolver:  Solving for k, Initial residual = 0.00121512, Final residual = 9.32095e-05, No Iterations 1
ExecutionTime = 27.13 s  ClockTime = 27 s

forces forcesFish write:
    Sum of forces
        Total    : (0.0804262 -0.00139257 0.000588319)
        Pressure : (0.0293142 -0.00162297 0.000583153)
        Viscous  : (0.051112 0.000230405 5.16508e-06)
    Sum of moments
        Total    : (-4.48821e-06 -0.000203477 0.00104006)
        Pressure : (-4.5788e-06 -0.000197385 0.000906096)
        Viscous  : (9.05928e-08 -6.09148e-06 0.000133966)
    writing force and moment files.

Time = 47

smoothSolver:  Solving for Ux, Initial residual = 4.10925e-05, Final residual = 7.7681e-07, No Iterations 2
smoothSolver:  Solving for Uy, Initial residual = 0.000461961, Final residual = 4.39085e-05, No Iterations 1
smoothSolver:  Solving for Uz, Initial residual = 0.00247935, Final residual = 0.000211323, No Iterations 1
GAMG:  Solving for p, Initial residual = 0.00322947, Final residual = 0.000135538, No Iterations 2
time step continuity errors : sum local = 7.80043e-07, global = -1.13762e-07, cumulative = 3.27873e-06
smoothSolver:  Solving for omega, Initial residual = 5.21483e-06, Final residual = 1.06541e-07, No Iterations 2
smoothSolver:  Solving for k, Initial residual = 0.00104161, Final residual = 8.02989e-05, No Iterations 1
ExecutionTime = 27.67 s  ClockTime = 27 s

forces forcesFish write:
    Sum of forces
        Total    : (0.0802516 -0.00141991 0.000597123)
        Pressure : (0.0292543 -0.00165012 0.00059207)
        Viscous  : (0.0509973 0.000230209 5.0531e-06)
    Sum of moments
        Total    : (-4.26796e-06 -0.000205008 0.00103069)
        Pressure : (-4.35981e-06 -0.000198936 0.00089699)
        Viscous  : (9.18486e-08 -6.07188e-06 0.0001337)
    writing force and moment files.

Time = 48

smoothSolver:  Solving for Ux, Initial residual = 3.94016e-05, Final residual = 7.38211e-07, No Iterations 2
smoothSolver:  Solving for Uy, Initial residual = 0.0004315, Final residual = 4.06221e-05, No Iterations 1
smoothSolver:  Solving for Uz, Initial residual = 0.00230099, Final residual = 0.000194077, No Iterations 1
GAMG:  Solving for p, Initial residual = 0.0030289, Final residual = 0.000121781, No Iterations 2
time step continuity errors : sum local = 7.02029e-07, global = -1.29753e-07, cumulative = 3.14898e-06
smoothSolver:  Solving for omega, Initial residual = 4.36062e-06, Final residual = 9.7569e-08, No Iterations 2
smoothSolver:  Solving for k, Initial residual = 0.000887308, Final residual = 6.89902e-05, No Iterations 1
ExecutionTime = 28.27 s  ClockTime = 28 s

forces forcesFish write:
    Sum of forces
        Total    : (0.08009 -0.00144205 0.00059588)
        Pressure : (0.0292012 -0.00167197 0.00059089)
        Viscous  : (0.0508888 0.000229917 4.99021e-06)
    Sum of moments
        Total    : (-4.00575e-06 -0.000204532 0.00102247)
        Pressure : (-4.09844e-06 -0.000198467 0.000889051)
        Viscous  : (9.26943e-08 -6.06502e-06 0.000133421)
    writing force and moment files.

Time = 49

smoothSolver:  Solving for Ux, Initial residual = 3.69212e-05, Final residual = 6.96187e-07, No Iterations 2
smoothSolver:  Solving for Uy, Initial residual = 0.000402088, Final residual = 3.77309e-05, No Iterations 1
smoothSolver:  Solving for Uz, Initial residual = 0.0021415, Final residual = 0.000179681, No Iterations 1
GAMG:  Solving for p, Initial residual = 0.00283413, Final residual = 0.000109827, No Iterations 2
time step continuity errors : sum local = 6.33774e-07, global = -1.36255e-07, cumulative = 3.01272e-06
smoothSolver:  Solving for omega, Initial residual = 3.6773e-06, Final residual = 8.95661e-08, No Iterations 2
smoothSolver:  Solving for k, Initial residual = 0.00075138, Final residual = 5.915e-05, No Iterations 1
ExecutionTime = 28.89 s  ClockTime = 29 s

forces forcesFish write:
    Sum of forces
        Total    : (0.079939 -0.00146198 0.000586649)
        Pressure : (0.0291527 -0.00169146 0.000581726)
        Viscous  : (0.0507863 0.000229484 4.92327e-06)
    Sum of moments
        Total    : (-3.75662e-06 -0.000202429 0.00101471)
        Pressure : (-3.8503e-06 -0.000196376 0.0008816)
        Viscous  : (9.36837e-08 -6.05269e-06 0.000133109)
    writing force and moment files.

Time = 50

smoothSolver:  Solving for Ux, Initial residual = 3.35473e-05, Final residual = 6.49157e-07, No Iterations 2
smoothSolver:  Solving for Uy, Initial residual = 0.000374145, Final residual = 3.51289e-05, No Iterations 1
smoothSolver:  Solving for Uz, Initial residual = 0.0019961, Final residual = 0.000166745, No Iterations 1
GAMG:  Solving for p, Initial residual = 0.00264431, Final residual = 0.000101042, No Iterations 2
time step continuity errors : sum local = 5.83213e-07, global = -1.18446e-07, cumulative = 2.89428e-06
smoothSolver:  Solving for omega, Initial residual = 3.13244e-06, Final residual = 8.24496e-08, No Iterations 2
smoothSolver:  Solving for k, Initial residual = 0.000633016, Final residual = 5.0658e-05, No Iterations 1
ExecutionTime = 29.52 s  ClockTime = 29 s

forces forcesFish write:
    Sum of forces
        Total    : (0.079796 -0.00148024 0.000572625)
        Pressure : (0.0291067 -0.00170922 0.000567743)
        Viscous  : (0.0506893 0.000228977 4.88256e-06)
    Sum of moments
        Total    : (-3.57179e-06 -0.00019936 0.00100741)
        Pressure : (-3.66624e-06 -0.000193312 0.000874626)
        Viscous  : (9.44556e-08 -6.048e-06 0.000132787)
    writing force and moment files.

Time = 51

smoothSolver:  Solving for Ux, Initial residual = 3.04749e-05, Final residual = 6.03656e-07, No Iterations 2
smoothSolver:  Solving for Uy, Initial residual = 0.000346484, Final residual = 3.25796e-05, No Iterations 1
smoothSolver:  Solving for Uz, Initial residual = 0.00185609, Final residual = 0.000154458, No Iterations 1
GAMG:  Solving for p, Initial residual = 0.00246496, Final residual = 9.35477e-05, No Iterations 2
time step continuity errors : sum local = 5.39718e-07, global = -9.66113e-08, cumulative = 2.79767e-06
smoothSolver:  Solving for omega, Initial residual = 2.69805e-06, Final residual = 7.60548e-08, No Iterations 2
smoothSolver:  Solving for k, Initial residual = 0.000530948, Final residual = 4.3372e-05, No Iterations 1
ExecutionTime = 30.11 s  ClockTime = 30 s

forces forcesFish write:
    Sum of forces
        Total    : (0.0796594 -0.00149673 0.000558389)
        Pressure : (0.0290618 -0.00172515 0.000553568)
        Viscous  : (0.0505976 0.000228414 4.8211e-06)
    Sum of moments
        Total    : (-3.48239e-06 -0.000196306 0.00100081)
        Pressure : (-3.57772e-06 -0.000190271 0.000868357)
        Viscous  : (9.5325e-08 -6.03445e-06 0.000132453)
    writing force and moment files.

Time = 52

smoothSolver:  Solving for Ux, Initial residual = 2.84192e-05, Final residual = 5.66622e-07, No Iterations 2
smoothSolver:  Solving for Uy, Initial residual = 0.000320505, Final residual = 3.01137e-05, No Iterations 1
smoothSolver:  Solving for Uz, Initial residual = 0.00171438, Final residual = 0.00014189, No Iterations 1
GAMG:  Solving for p, Initial residual = 0.00229729, Final residual = 8.8254e-05, No Iterations 2
time step continuity errors : sum local = 5.08904e-07, global = -8.09129e-08, cumulative = 2.71675e-06
smoothSolver:  Solving for omega, Initial residual = 2.35089e-06, Final residual = 7.02429e-08, No Iterations 2
smoothSolver:  Solving for k, Initial residual = 0.000443704, Final residual = 3.71467e-05, No Iterations 1
ExecutionTime = 30.78 s  ClockTime = 30 s

forces forcesFish write:
    Sum of forces
        Total    : (0.0795282 -0.00151182 0.000547238)
        Pressure : (0.0290174 -0.00173963 0.000542451)
        Viscous  : (0.0505107 0.000227812 4.78684e-06)
    Sum of moments
        Total    : (-3.48408e-06 -0.000193977 0.000994862)
        Pressure : (-3.58012e-06 -0.000187947 0.000862752)
        Viscous  : (9.60396e-08 -6.0298e-06 0.00013211)
    writing force and moment files.

Time = 53

smoothSolver:  Solving for Ux, Initial residual = 2.76455e-05, Final residual = 5.39348e-07, No Iterations 2
smoothSolver:  Solving for Uy, Initial residual = 0.000296849, Final residual = 2.78774e-05, No Iterations 1
smoothSolver:  Solving for Uz, Initial residual = 0.00157432, Final residual = 0.000129533, No Iterations 1
GAMG:  Solving for p, Initial residual = 0.00214813, Final residual = 8.81532e-05, No Iterations 2
time step continuity errors : sum local = 5.08168e-07, global = -6.23891e-08, cumulative = 2.65436e-06
smoothSolver:  Solving for omega, Initial residual = 2.07165e-06, Final residual = 6.49032e-08, No Iterations 2
smoothSolver:  Solving for k, Initial residual = 0.00036977, Final residual = 3.18471e-05, No Iterations 1
ExecutionTime = 31.42 s  ClockTime = 31 s

forces forcesFish write:
    Sum of forces
        Total    : (0.0794014 -0.00152586 0.00054019)
        Pressure : (0.0289729 -0.00175305 0.000535435)
        Viscous  : (0.0504285 0.000227189 4.7549e-06)
    Sum of moments
        Total    : (-3.55212e-06 -0.000192595 0.000989393)
        Pressure : (-3.64884e-06 -0.00018657 0.000857629)
        Viscous  : (9.67231e-08 -6.02538e-06 0.000131764)
    writing force and moment files.

Time = 54

smoothSolver:  Solving for Ux, Initial residual = 2.70284e-05, Final residual = 5.14615e-07, No Iterations 2
smoothSolver:  Solving for Uy, Initial residual = 0.000276465, Final residual = 2.59571e-05, No Iterations 1
smoothSolver:  Solving for Uz, Initial residual = 0.00144723, Final residual = 0.000118864, No Iterations 1
GAMG:  Solving for p, Initial residual = 0.00201421, Final residual = 8.66897e-05, No Iterations 2
time step continuity errors : sum local = 4.99684e-07, global = -3.02004e-08, cumulative = 2.62416e-06
smoothSolver:  Solving for omega, Initial residual = 1.84462e-06, Final residual = 5.99697e-08, No Iterations 2
smoothSolver:  Solving for k, Initial residual = 0.000307677, Final residual = 2.73538e-05, No Iterations 1
ExecutionTime = 32.03 s  ClockTime = 32 s

forces forcesFish write:
    Sum of forces
        Total    : (0.0792782 -0.00153899 0.000537114)
        Pressure : (0.0289275 -0.00176552 0.000532389)
        Viscous  : (0.0503507 0.000226535 4.72474e-06)
    Sum of moments
        Total    : (-3.66026e-06 -0.000192131 0.000984243)
        Pressure : (-3.75754e-06 -0.000186107 0.000852832)
        Viscous  : (9.72786e-08 -6.02363e-06 0.00013141)
    writing force and moment files.

Time = 55

smoothSolver:  Solving for Ux, Initial residual = 2.62305e-05, Final residual = 4.90375e-07, No Iterations 2
smoothSolver:  Solving for Uy, Initial residual = 0.000261268, Final residual = 2.4487e-05, No Iterations 1
smoothSolver:  Solving for Uz, Initial residual = 0.00133832, Final residual = 0.000110041, No Iterations 1
GAMG:  Solving for p, Initial residual = 0.00189603, Final residual = 8.29876e-05, No Iterations 2
time step continuity errors : sum local = 4.78343e-07, global = 1.46438e-08, cumulative = 2.63881e-06
smoothSolver:  Solving for omega, Initial residual = 1.65825e-06, Final residual = 5.54159e-08, No Iterations 2
smoothSolver:  Solving for k, Initial residual = 0.000255911, Final residual = 2.35514e-05, No Iterations 1
ExecutionTime = 32.57 s  ClockTime = 32 s

forces forcesFish write:
    Sum of forces
        Total    : (0.0791582 -0.00155095 0.000537623)
        Pressure : (0.028881 -0.0017768 0.000532923)
        Viscous  : (0.0502771 0.000225856 4.70005e-06)
    Sum of moments
        Total    : (-3.78667e-06 -0.000192501 0.000979395)
        Pressure : (-3.88448e-06 -0.000186476 0.000848344)
        Viscous  : (9.78115e-08 -6.02555e-06 0.000131051)
    writing force and moment files.

Time = 56

smoothSolver:  Solving for Ux, Initial residual = 2.53217e-05, Final residual = 4.6677e-07, No Iterations 2
smoothSolver:  Solving for Uy, Initial residual = 0.000248403, Final residual = 2.32487e-05, No Iterations 1
smoothSolver:  Solving for Uz, Initial residual = 0.00125133, Final residual = 0.000103134, No Iterations 1
GAMG:  Solving for p, Initial residual = 0.00178575, Final residual = 7.66252e-05, No Iterations 2
time step continuity errors : sum local = 4.41684e-07, global = 5.87322e-08, cumulative = 2.69754e-06
smoothSolver:  Solving for omega, Initial residual = 1.50344e-06, Final residual = 5.12027e-08, No Iterations 2
smoothSolver:  Solving for k, Initial residual = 0.00021303, Final residual = 2.03364e-05, No Iterations 1
ExecutionTime = 33.08 s  ClockTime = 33 s

forces forcesFish write:
    Sum of forces
        Total    : (0.0790417 -0.00156141 0.000541168)
        Pressure : (0.0288341 -0.00178657 0.000536493)
        Viscous  : (0.0502076 0.000225154 4.67491e-06)
    Sum of moments
        Total    : (-3.91459e-06 -0.000193581 0.000974896)
        Pressure : (-4.01285e-06 -0.000187553 0.000844211)
        Viscous  : (9.82553e-08 -6.02867e-06 0.000130686)
    writing force and moment files.

Time = 57

smoothSolver:  Solving for Ux, Initial residual = 2.40592e-05, Final residual = 4.42257e-07, No Iterations 2
smoothSolver:  Solving for Uy, Initial residual = 0.000234531, Final residual = 2.1978e-05, No Iterations 1
smoothSolver:  Solving for Uz, Initial residual = 0.00118058, Final residual = 9.77338e-05, No Iterations 1
GAMG:  Solving for p, Initial residual = 0.00168245, Final residual = 6.59278e-05, No Iterations 2
time step continuity errors : sum local = 3.80072e-07, global = 8.79356e-08, cumulative = 2.78547e-06
smoothSolver:  Solving for omega, Initial residual = 1.37324e-06, Final residual = 4.7302e-08, No Iterations 2
smoothSolver:  Solving for k, Initial residual = 0.000177686, Final residual = 1.76163e-05, No Iterations 1
ExecutionTime = 33.6 s  ClockTime = 33 s

forces forcesFish write:
    Sum of forces
        Total    : (0.0789294 -0.00157029 0.00054722)
        Pressure : (0.0287873 -0.00179471 0.000542561)
        Viscous  : (0.050142 0.000224422 4.65874e-06)
    Sum of moments
        Total    : (-4.03388e-06 -0.000195251 0.000970743)
        Pressure : (-4.13245e-06 -0.000189214 0.000840428)
        Viscous  : (9.8566e-08 -6.03646e-06 0.000130314)
    writing force and moment files.

Time = 58

smoothSolver:  Solving for Ux, Initial residual = 2.20415e-05, Final residual = 4.14061e-07, No Iterations 2
smoothSolver:  Solving for Uy, Initial residual = 0.000220438, Final residual = 2.07149e-05, No Iterations 1
smoothSolver:  Solving for Uz, Initial residual = 0.00111709, Final residual = 9.30039e-05, No Iterations 1
GAMG:  Solving for p, Initial residual = 0.00158159, Final residual = 5.99544e-05, No Iterations 2
time step continuity errors : sum local = 3.45763e-07, global = 8.13032e-08, cumulative = 2.86678e-06
smoothSolver:  Solving for omega, Initial residual = 1.26188e-06, Final residual = 4.3703e-08, No Iterations 2
smoothSolver:  Solving for k, Initial residual = 0.000148667, Final residual = 2.64052e-06, No Iterations 2
ExecutionTime = 34.13 s  ClockTime = 34 s

forces forcesFish write:
    Sum of forces
        Total    : (0.0788156 -0.00157739 0.000555083)
        Pressure : (0.0287421 -0.00180098 0.000550417)
        Viscous  : (0.0500735 0.000223586 4.66546e-06)
    Sum of moments
        Total    : (-4.13647e-06 -0.000197353 0.000966966)
        Pressure : (-4.23533e-06 -0.000191297 0.00083709)
        Viscous  : (9.88637e-08 -6.0564e-06 0.000129876)
    writing force and moment files.

Time = 59

smoothSolver:  Solving for Ux, Initial residual = 1.93445e-05, Final residual = 3.84787e-07, No Iterations 2
smoothSolver:  Solving for Uy, Initial residual = 0.00020775, Final residual = 1.95757e-05, No Iterations 1
smoothSolver:  Solving for Uz, Initial residual = 0.00105914, Final residual = 8.87559e-05, No Iterations 1
GAMG:  Solving for p, Initial residual = 0.00148341, Final residual = 5.71252e-05, No Iterations 2
time step continuity errors : sum local = 3.29704e-07, global = 6.33627e-08, cumulative = 2.93014e-06
smoothSolver:  Solving for omega, Initial residual = 1.19924e-06, Final residual = 4.14306e-08, No Iterations 2
smoothSolver:  Solving for k, Initial residual = 0.000123449, Final residual = 2.31235e-06, No Iterations 2
ExecutionTime = 34.64 s  ClockTime = 34 s

forces forcesFish write:
    Sum of forces
        Total    : (0.0787089 -0.00158164 0.000562916)
        Pressure : (0.0286999 -0.00180435 0.000558233)
        Viscous  : (0.050009 0.00022271 4.68268e-06)
    Sum of moments
        Total    : (-4.2118e-06 -0.000199452 0.000964025)
        Pressure : (-4.31086e-06 -0.000193372 0.000834595)
        Viscous  : (9.90606e-08 -6.08051e-06 0.00012943)
    writing force and moment files.

Time = 60

smoothSolver:  Solving for Ux, Initial residual = 1.70454e-05, Final residual = 3.58369e-07, No Iterations 2
smoothSolver:  Solving for Uy, Initial residual = 0.000194888, Final residual = 1.84542e-05, No Iterations 1
smoothSolver:  Solving for Uz, Initial residual = 0.000996008, Final residual = 8.40308e-05, No Iterations 1
GAMG:  Solving for p, Initial residual = 0.00139017, Final residual = 5.15846e-05, No Iterations 2
time step continuity errors : sum local = 2.97997e-07, global = 6.45465e-08, cumulative = 2.99469e-06
smoothSolver:  Solving for omega, Initial residual = 1.1319e-06, Final residual = 3.90453e-08, No Iterations 2
smoothSolver:  Solving for k, Initial residual = 0.000103007, Final residual = 2.01203e-06, No Iterations 2
ExecutionTime = 35.14 s  ClockTime = 35 s

forces forcesFish write:
    Sum of forces
        Total    : (0.07861 -0.00158282 0.000569298)
        Pressure : (0.0286612 -0.00180463 0.000564596)
        Viscous  : (0.0499488 0.000221804 4.70201e-06)
    Sum of moments
        Total    : (-4.25895e-06 -0.000201212 0.000962069)
        Pressure : (-4.35816e-06 -0.000195107 0.000833089)
        Viscous  : (9.92089e-08 -6.10535e-06 0.000128981)
    writing force and moment files.

Time = 61

smoothSolver:  Solving for Ux, Initial residual = 1.60881e-05, Final residual = 3.40483e-07, No Iterations 2
smoothSolver:  Solving for Uy, Initial residual = 0.000180865, Final residual = 1.72541e-05, No Iterations 1
smoothSolver:  Solving for Uz, Initial residual = 0.000926678, Final residual = 7.8659e-05, No Iterations 1
GAMG:  Solving for p, Initial residual = 0.00130647, Final residual = 4.80248e-05, No Iterations 2
time step continuity errors : sum local = 2.77618e-07, global = 6.59757e-08, cumulative = 3.06066e-06
smoothSolver:  Solving for omega, Initial residual = 1.0652e-06, Final residual = 3.66261e-08, No Iterations 2
smoothSolver:  Solving for k, Initial residual = 8.6431e-05, Final residual = 1.74738e-06, No Iterations 2
ExecutionTime = 35.67 s  ClockTime = 35 s

forces forcesFish write:
    Sum of forces
        Total    : (0.0785184 -0.00158151 0.00057396)
        Pressure : (0.0286257 -0.00180238 0.000569244)
        Viscous  : (0.0498927 0.000220873 4.71576e-06)
    Sum of moments
        Total    : (-4.28579e-06 -0.000202564 0.000960936)
        Pressure : (-4.38517e-06 -0.000196436 0.000832407)
        Viscous  : (9.93781e-08 -6.12766e-06 0.000128529)
    writing force and moment files.

Time = 62

smoothSolver:  Solving for Ux, Initial residual = 1.58585e-05, Final residual = 3.2614e-07, No Iterations 2
smoothSolver:  Solving for Uy, Initial residual = 0.000166666, Final residual = 1.60605e-05, No Iterations 1
smoothSolver:  Solving for Uz, Initial residual = 0.000855691, Final residual = 7.31879e-05, No Iterations 1
GAMG:  Solving for p, Initial residual = 0.00123071, Final residual = 4.65325e-05, No Iterations 2
time step continuity errors : sum local = 2.69087e-07, global = 5.35299e-08, cumulative = 3.11419e-06
smoothSolver:  Solving for omega, Initial residual = 1.00032e-06, Final residual = 3.42133e-08, No Iterations 2
smoothSolver:  Solving for k, Initial residual = 7.29551e-05, Final residual = 1.5164e-06, No Iterations 2
ExecutionTime = 36.2 s  ClockTime = 36 s

forces forcesFish write:
    Sum of forces
        Total    : (0.0784331 -0.00157844 0.000577308)
        Pressure : (0.0285927 -0.00179835 0.00057258)
        Viscous  : (0.0498404 0.000219918 4.72766e-06)
    Sum of moments
        Total    : (-4.30203e-06 -0.000203606 0.000960371)
        Pressure : (-4.40163e-06 -0.000197457 0.000832296)
        Viscous  : (9.95965e-08 -6.14847e-06 0.000128074)
    writing force and moment files.

Time = 63

smoothSolver:  Solving for Ux, Initial residual = 1.56108e-05, Final residual = 3.11857e-07, No Iterations 2
smoothSolver:  Solving for Uy, Initial residual = 0.000154382, Final residual = 1.50422e-05, No Iterations 1
smoothSolver:  Solving for Uz, Initial residual = 0.0007912, Final residual = 6.8135e-05, No Iterations 1
GAMG:  Solving for p, Initial residual = 0.00116209, Final residual = 4.4176e-05, No Iterations 2
time step continuity errors : sum local = 2.55496e-07, global = 2.92887e-08, cumulative = 3.14348e-06
smoothSolver:  Solving for omega, Initial residual = 9.37603e-07, Final residual = 3.18381e-08, No Iterations 2
smoothSolver:  Solving for k, Initial residual = 6.19533e-05, Final residual = 1.31513e-06, No Iterations 2
ExecutionTime = 36.73 s  ClockTime = 36 s

forces forcesFish write:
    Sum of forces
        Total    : (0.0783537 -0.00157414 0.000579801)
        Pressure : (0.0285618 -0.00179308 0.000575058)
        Viscous  : (0.0497919 0.000218938 4.74303e-06)
    Sum of moments
        Total    : (-4.3149e-06 -0.000204456 0.000960171)
        Pressure : (-4.41475e-06 -0.000198287 0.000832555)
        Viscous  : (9.98542e-08 -6.16944e-06 0.000127616)
    writing force and moment files.

Time = 64

smoothSolver:  Solving for Ux, Initial residual = 1.52112e-05, Final residual = 2.97076e-07, No Iterations 2
[...]
        Viscous  : (1.33877e-07 -6.7225e-06 0.000114647)
    writing force and moment files.

Time = 124

smoothSolver:  Solving for Ux, Initial residual = 7.49337e-07, Final residual = 5.85977e-08, No Iterations 1
smoothSolver:  Solving for Uy, Initial residual = 8.36143e-06, Final residual = 7.20655e-07, No Iterations 1
smoothSolver:  Solving for Uz, Initial residual = 3.32797e-05, Final residual = 2.7964e-06, No Iterations 1
GAMG:  Solving for p, Initial residual = 3.66674e-05, Final residual = 1.63189e-06, No Iterations 2
time step continuity errors : sum local = 9.42454e-09, global = 3.73925e-10, cumulative = 2.90671e-06
smoothSolver:  Solving for omega, Initial residual = 1.08372e-08, Final residual = 1.39085e-09, No Iterations 1
smoothSolver:  Solving for k, Initial residual = 4.10719e-08, Final residual = 2.96261e-09, No Iterations 1
ExecutionTime = 69.33 s  ClockTime = 69 s

forces forcesFish write:
    Sum of forces
        Total    : (0.0774835 -0.00124354 0.000543545)
        Pressure : (0.0282432 -0.00143289 0.00053771)
        Viscous  : (0.0492403 0.000189348 5.83523e-06)
    Sum of moments
        Total    : (-4.32302e-06 -0.000194669 0.0010299)
        Pressure : (-4.4572e-06 -0.000187964 0.000915247)
        Viscous  : (1.34182e-07 -6.70548e-06 0.000114651)
    writing force and moment files.

Time = 125

smoothSolver:  Solving for Ux, Initial residual = 7.2276e-07, Final residual = 5.61926e-08, No Iterations 1
smoothSolver:  Solving for Uy, Initial residual = 7.75664e-06, Final residual = 6.68567e-07, No Iterations 1
smoothSolver:  Solving for Uz, Initial residual = 3.08994e-05, Final residual = 2.597e-06, No Iterations 1
GAMG:  Solving for p, Initial residual = 3.43382e-05, Final residual = 1.47217e-06, No Iterations 2
time step continuity errors : sum local = 8.50211e-09, global = 2.25492e-09, cumulative = 2.90896e-06
smoothSolver:  Solving for omega, Initial residual = 7.55003e-09, Final residual = 7.55003e-09, No Iterations 0
smoothSolver:  Solving for k, Initial residual = 3.86502e-08, Final residual = 2.77903e-09, No Iterations 1
ExecutionTime = 69.83 s  ClockTime = 69 s

forces forcesFish write:
    Sum of forces
        Total    : (0.0774835 -0.00124218 0.000543012)
        Pressure : (0.0282435 -0.00143157 0.000537142)
        Viscous  : (0.04924 0.00018939 5.86972e-06)
    Sum of moments
        Total    : (-4.32049e-06 -0.000194451 0.00103044)
        Pressure : (-4.45458e-06 -0.000187731 0.000915776)
        Viscous  : (1.34087e-07 -6.71964e-06 0.000114661)
    writing force and moment files.

Time = 126

smoothSolver:  Solving for Ux, Initial residual = 6.89774e-07, Final residual = 5.33941e-08, No Iterations 1
smoothSolver:  Solving for Uy, Initial residual = 7.16144e-06, Final residual = 6.17632e-07, No Iterations 1
smoothSolver:  Solving for Uz, Initial residual = 2.86752e-05, Final residual = 2.41363e-06, No Iterations 1
GAMG:  Solving for p, Initial residual = 3.21934e-05, Final residual = 1.39085e-06, No Iterations 2
time step continuity errors : sum local = 8.03252e-09, global = 3.74161e-09, cumulative = 2.91271e-06
smoothSolver:  Solving for omega, Initial residual = 8.76243e-09, Final residual = 8.76243e-09, No Iterations 0
smoothSolver:  Solving for k, Initial residual = 3.63961e-08, Final residual = 2.5985e-09, No Iterations 1
ExecutionTime = 70.34 s  ClockTime = 70 s

forces forcesFish write:
    Sum of forces
        Total    : (0.0774836 -0.00124093 0.000542457)
        Pressure : (0.0282438 -0.00143034 0.000536641)
        Viscous  : (0.0492398 0.000189413 5.81639e-06)
    Sum of moments
        Total    : (-4.3178e-06 -0.000194223 0.00103093)
        Pressure : (-4.45223e-06 -0.000187524 0.000916271)
        Viscous  : (1.3443e-07 -6.69866e-06 0.000114664)
    writing force and moment files.

Time = 127

smoothSolver:  Solving for Ux, Initial residual = 6.47898e-07, Final residual = 5.00544e-08, No Iterations 1
smoothSolver:  Solving for Uy, Initial residual = 6.5849e-06, Final residual = 5.6911e-07, No Iterations 1
smoothSolver:  Solving for Uz, Initial residual = 2.65398e-05, Final residual = 2.23948e-06, No Iterations 1
GAMG:  Solving for p, Initial residual = 3.02711e-05, Final residual = 1.4567e-06, No Iterations 2
time step continuity errors : sum local = 8.41285e-09, global = 4.74073e-09, cumulative = 2.91745e-06
smoothSolver:  Solving for omega, Initial residual = 9.93196e-09, Final residual = 9.93196e-09, No Iterations 0
smoothSolver:  Solving for k, Initial residual = 3.42783e-08, Final residual = 2.4331e-09, No Iterations 1
ExecutionTime = 70.83 s  ClockTime = 70 s

forces forcesFish write:
    Sum of forces
        Total    : (0.0774836 -0.00123975 0.000542021)
        Pressure : (0.028244 -0.0014292 0.000536177)
        Viscous  : (0.0492396 0.000189451 5.84434e-06)
    Sum of moments
        Total    : (-4.31564e-06 -0.000194043 0.00103141)
        Pressure : (-4.45002e-06 -0.000187333 0.000916732)
        Viscous  : (1.34375e-07 -6.71015e-06 0.000114673)
    writing force and moment files.

Time = 128

smoothSolver:  Solving for Ux, Initial residual = 5.94656e-07, Final residual = 4.59959e-08, No Iterations 1
smoothSolver:  Solving for Uy, Initial residual = 6.02908e-06, Final residual = 5.2264e-07, No Iterations 1
smoothSolver:  Solving for Uz, Initial residual = 2.44925e-05, Final residual = 2.07489e-06, No Iterations 1
GAMG:  Solving for p, Initial residual = 2.86137e-05, Final residual = 1.62749e-06, No Iterations 2
time step continuity errors : sum local = 9.39931e-09, global = 5.25198e-09, cumulative = 2.9227e-06
smoothSolver:  Solving for omega, Initial residual = 1.10562e-08, Final residual = 1.38772e-09, No Iterations 1
smoothSolver:  Solving for k, Initial residual = 3.22346e-08, Final residual = 2.27289e-09, No Iterations 1
ExecutionTime = 71.33 s  ClockTime = 71 s

forces forcesFish write:
    Sum of forces
        Total    : (0.0774837 -0.00123864 0.000541535)
        Pressure : (0.0282443 -0.00142812 0.000535726)
        Viscous  : (0.0492395 0.00018948 5.80865e-06)
    Sum of moments
        Total    : (-4.31323e-06 -0.000193842 0.00103185)
        Pressure : (-4.44782e-06 -0.000187146 0.000917168)
        Viscous  : (1.34591e-07 -6.69615e-06 0.00011468)
    writing force and moment files.

Time = 129

smoothSolver:  Solving for Ux, Initial residual = 5.29195e-07, Final residual = 4.11335e-08, No Iterations 1
smoothSolver:  Solving for Uy, Initial residual = 5.50982e-06, Final residual = 4.79714e-07, No Iterations 1
smoothSolver:  Solving for Uz, Initial residual = 2.25697e-05, Final residual = 1.91937e-06, No Iterations 1
GAMG:  Solving for p, Initial residual = 2.69866e-05, Final residual = 1.72408e-06, No Iterations 2
time step continuity errors : sum local = 9.95734e-09, global = 5.40975e-09, cumulative = 2.92811e-06
smoothSolver:  Solving for omega, Initial residual = 7.31633e-09, Final residual = 7.31633e-09, No Iterations 0
smoothSolver:  Solving for k, Initial residual = 3.0182e-08, Final residual = 2.13385e-09, No Iterations 1
ExecutionTime = 71.81 s  ClockTime = 71 s

forces forcesFish write:
    Sum of forces
        Total    : (0.0774838 -0.00123761 0.000541174)
        Pressure : (0.0282445 -0.00142712 0.000535349)
        Viscous  : (0.0492393 0.000189509 5.82469e-06)
    Sum of moments
        Total    : (-4.31139e-06 -0.000193691 0.00103227)
        Pressure : (-4.446e-06 -0.000186988 0.000917579)
        Viscous  : (1.34612e-07 -6.70283e-06 0.000114686)
    writing force and moment files.

Time = 130

smoothSolver:  Solving for Ux, Initial residual = 4.53648e-07, Final residual = 3.56183e-08, No Iterations 1
smoothSolver:  Solving for Uy, Initial residual = 5.016e-06, Final residual = 4.38804e-07, No Iterations 1
smoothSolver:  Solving for Uz, Initial residual = 2.06903e-05, Final residual = 1.77138e-06, No Iterations 1
GAMG:  Solving for p, Initial residual = 2.54824e-05, Final residual = 1.7489e-06, No Iterations 2
time step continuity errors : sum local = 1.01009e-08, global = 5.22971e-09, cumulative = 2.93334e-06
smoothSolver:  Solving for omega, Initial residual = 8.28513e-09, Final residual = 8.28513e-09, No Iterations 0
smoothSolver:  Solving for k, Initial residual = 2.81924e-08, Final residual = 1.99355e-09, No Iterations 1
ExecutionTime = 72.31 s  ClockTime = 72 s

forces forcesFish write:
    Sum of forces
        Total    : (0.0774839 -0.00123662 0.000540743)
        Pressure : (0.0282448 -0.00142616 0.000534941)
        Viscous  : (0.0492391 0.000189542 5.80137e-06)
    Sum of moments
        Total    : (-4.30923e-06 -0.000193512 0.00103266)
        Pressure : (-4.44397e-06 -0.000186819 0.000917967)
        Viscous  : (1.34734e-07 -6.6937e-06 0.000114695)
    writing force and moment files.

Time = 131

smoothSolver:  Solving for Ux, Initial residual = 3.73272e-07, Final residual = 2.97501e-08, No Iterations 1
smoothSolver:  Solving for Uy, Initial residual = 4.56361e-06, Final residual = 4.01373e-07, No Iterations 1
smoothSolver:  Solving for Uz, Initial residual = 1.89728e-05, Final residual = 1.63113e-06, No Iterations 1
GAMG:  Solving for p, Initial residual = 2.39514e-05, Final residual = 1.68171e-06, No Iterations 2
time step continuity errors : sum local = 9.71296e-09, global = 4.9445e-09, cumulative = 2.93828e-06
smoothSolver:  Solving for omega, Initial residual = 9.23477e-09, Final residual = 9.23477e-09, No Iterations 0
smoothSolver:  Solving for k, Initial residual = 2.62547e-08, Final residual = 1.85923e-09, No Iterations 1
ExecutionTime = 72.82 s  ClockTime = 72 s

forces forcesFish write:
    Sum of forces
        Total    : (0.077484 -0.00123571 0.000540446)
        Pressure : (0.0282451 -0.00142527 0.00053464)
        Viscous  : (0.049239 0.000189562 5.80671e-06)
    Sum of moments
        Total    : (-4.3077e-06 -0.000193387 0.00103303)
        Pressure : (-4.44252e-06 -0.000186691 0.000918332)
        Viscous  : (1.34824e-07 -6.69607e-06 0.000114699)
    writing force and moment files.

Time = 132

smoothSolver:  Solving for Ux, Initial residual = 2.95807e-07, Final residual = 2.40865e-08, No Iterations 1
smoothSolver:  Solving for Uy, Initial residual = 4.13303e-06, Final residual = 3.6535e-07, No Iterations 1
smoothSolver:  Solving for Uz, Initial residual = 1.72623e-05, Final residual = 1.49401e-06, No Iterations 1
GAMG:  Solving for p, Initial residual = 2.25336e-05, Final residual = 1.56812e-06, No Iterations 2
time step continuity errors : sum local = 9.05712e-09, global = 4.44141e-09, cumulative = 2.94272e-06
smoothSolver:  Solving for omega, Initial residual = 1.01167e-08, Final residual = 1.27894e-09, No Iterations 1
smoothSolver:  Solving for k, Initial residual = 2.4535e-08, Final residual = 1.7216e-09, No Iterations 1
ExecutionTime = 73.32 s  ClockTime = 73 s

forces forcesFish write:
    Sum of forces
        Total    : (0.0774841 -0.00123483 0.000540059)
        Pressure : (0.0282452 -0.00142443 0.000534264)
        Viscous  : (0.0492388 0.000189598 5.79565e-06)
    Sum of moments
        Total    : (-4.30577e-06 -0.000193227 0.00103339)
        Pressure : (-4.44063e-06 -0.000186535 0.000918676)
        Viscous  : (1.34855e-07 -6.69178e-06 0.00011471)
    writing force and moment files.

Time = 133

smoothSolver:  Solving for Ux, Initial residual = 2.29023e-07, Final residual = 1.91003e-08, No Iterations 1
smoothSolver:  Solving for Uy, Initial residual = 3.75254e-06, Final residual = 3.33096e-07, No Iterations 1
smoothSolver:  Solving for Uz, Initial residual = 1.57562e-05, Final residual = 1.36657e-06, No Iterations 1
GAMG:  Solving for p, Initial residual = 2.10655e-05, Final residual = 1.3978e-06, No Iterations 2
time step continuity errors : sum local = 8.07353e-09, global = 3.80225e-09, cumulative = 2.94653e-06
smoothSolver:  Solving for omega, Initial residual = 6.63761e-09, Final residual = 6.63761e-09, No Iterations 0
smoothSolver:  Solving for k, Initial residual = 2.26987e-08, Final residual = 1.60065e-09, No Iterations 1
ExecutionTime = 73.83 s  ClockTime = 73 s

forces forcesFish write:
    Sum of forces
        Total    : (0.0774842 -0.00123403 0.000539814)
        Pressure : (0.0282455 -0.00142364 0.000534022)
        Viscous  : (0.0492387 0.000189609 5.7915e-06)
    Sum of moments
        Total    : (-4.30449e-06 -0.000193123 0.00103371)
        Pressure : (-4.4395e-06 -0.000186433 0.000918996)
        Viscous  : (1.35006e-07 -6.69031e-06 0.00011471)
    writing force and moment files.

Time = 134

smoothSolver:  Solving for Ux, Initial residual = 1.88856e-07, Final residual = 1.60515e-08, No Iterations 1
smoothSolver:  Solving for Uy, Initial residual = 3.40401e-06, Final residual = 3.03187e-07, No Iterations 1
smoothSolver:  Solving for Uz, Initial residual = 1.42873e-05, Final residual = 1.24607e-06, No Iterations 1
GAMG:  Solving for p, Initial residual = 1.96994e-05, Final residual = 1.2183e-06, No Iterations 2
time step continuity errors : sum local = 7.03682e-09, global = 2.93543e-09, cumulative = 2.94946e-06
smoothSolver:  Solving for omega, Initial residual = 7.35913e-09, Final residual = 7.35913e-09, No Iterations 0
smoothSolver:  Solving for k, Initial residual = 2.09542e-08, Final residual = 1.47906e-09, No Iterations 1
ExecutionTime = 74.32 s  ClockTime = 74 s

forces forcesFish write:
    Sum of forces
        Total    : (0.0774843 -0.00123327 0.000539479)
        Pressure : (0.0282457 -0.00142291 0.000533694)
        Viscous  : (0.0492386 0.000189645 5.78488e-06)
    Sum of moments
        Total    : (-4.30284e-06 -0.000192985 0.00103402)
        Pressure : (-4.43784e-06 -0.000186297 0.000919295)
        Viscous  : (1.35002e-07 -6.68776e-06 0.000114721)
    writing force and moment files.

Time = 135

smoothSolver:  Solving for Ux, Initial residual = 1.87927e-07, Final residual = 1.59213e-08, No Iterations 1
smoothSolver:  Solving for Uy, Initial residual = 3.11461e-06, Final residual = 2.77767e-07, No Iterations 1
smoothSolver:  Solving for Uz, Initial residual = 1.31176e-05, Final residual = 1.1431e-06, No Iterations 1
GAMG:  Solving for p, Initial residual = 1.83062e-05, Final residual = 1.01876e-06, No Iterations 2
time step continuity errors : sum local = 5.88438e-09, global = 1.94533e-09, cumulative = 2.95141e-06
smoothSolver:  Solving for omega, Initial residual = 8.13489e-09, Final residual = 8.13489e-09, No Iterations 0
smoothSolver:  Solving for k, Initial residual = 1.93409e-08, Final residual = 1.36674e-09, No Iterations 1
ExecutionTime = 74.8 s  ClockTime = 74 s

forces forcesFish write:
    Sum of forces
        Total    : (0.0774844 -0.00123258 0.00053928)
        Pressure : (0.0282459 -0.00142223 0.000533498)
        Viscous  : (0.0492385 0.000189652 5.78148e-06)
    Sum of moments
        Total    : (-4.30179e-06 -0.000192901 0.00103429)
        Pressure : (-4.43693e-06 -0.000186214 0.000919571)
        Viscous  : (1.35143e-07 -6.68656e-06 0.000114721)
    writing force and moment files.

Time = 136

smoothSolver:  Solving for Ux, Initial residual = 1.91986e-07, Final residual = 1.61598e-08, No Iterations 1
smoothSolver:  Solving for Uy, Initial residual = 2.84895e-06, Final residual = 2.5436e-07, No Iterations 1
smoothSolver:  Solving for Uz, Initial residual = 1.19822e-05, Final residual = 1.04865e-06, No Iterations 1
GAMG:  Solving for p, Initial residual = 1.70714e-05, Final residual = 8.49903e-07, No Iterations 2
time step continuity errors : sum local = 4.90907e-09, global = 8.47211e-10, cumulative = 2.95225e-06
smoothSolver:  Solving for omega, Initial residual = 8.78788e-09, Final residual = 8.78788e-09, No Iterations 0
smoothSolver:  Solving for k, Initial residual = 1.79373e-08, Final residual = 1.26451e-09, No Iterations 1
ExecutionTime = 75.28 s  ClockTime = 75 s

forces forcesFish write:
    Sum of forces
        Total    : (0.0774845 -0.00123192 0.000538991)
        Pressure : (0.0282461 -0.00142161 0.000533216)
        Viscous  : (0.0492384 0.000189685 5.77494e-06)
    Sum of moments
        Total    : (-4.30036e-06 -0.000192782 0.00103456)
        Pressure : (-4.43549e-06 -0.000186098 0.000919828)
        Viscous  : (1.35134e-07 -6.684e-06 0.000114732)
    writing force and moment files.

Time = 137

smoothSolver:  Solving for Ux, Initial residual = 1.94273e-07, Final residual = 1.62174e-08, No Iterations 1
smoothSolver:  Solving for Uy, Initial residual = 2.6279e-06, Final residual = 2.34934e-07, No Iterations 1
smoothSolver:  Solving for Uz, Initial residual = 1.10847e-05, Final residual = 9.67942e-07, No Iterations 1
GAMG:  Solving for p, Initial residual = 1.58773e-05, Final residual = 7.1351e-07, No Iterations 2
time step continuity errors : sum local = 4.12127e-09, global = -3.19705e-10, cumulative = 2.95193e-06
smoothSolver:  Solving for omega, Initial residual = 9.47425e-09, Final residual = 9.47425e-09, No Iterations 0
smoothSolver:  Solving for k, Initial residual = 1.66231e-08, Final residual = 1.17085e-09, No Iterations 1
ExecutionTime = 75.79 s  ClockTime = 75 s

forces forcesFish write:
    Sum of forces
        Total    : (0.0774846 -0.00123134 0.000538832)
        Pressure : (0.0282463 -0.00142103 0.000533059)
        Viscous  : (0.0492383 0.000189689 5.77343e-06)
    Sum of moments
        Total    : (-4.29951e-06 -0.000192714 0.0010348)
        Pressure : (-4.43477e-06 -0.000186031 0.000920065)
        Viscous  : (1.35258e-07 -6.68352e-06 0.000114731)
    writing force and moment files.

Time = 138

smoothSolver:  Solving for Ux, Initial residual = 1.92493e-07, Final residual = 1.60041e-08, No Iterations 1
smoothSolver:  Solving for Uy, Initial residual = 2.41878e-06, Final residual = 2.16656e-07, No Iterations 1
smoothSolver:  Solving for Uz, Initial residual = 1.01806e-05, Final residual = 8.9266e-07, No Iterations 1
GAMG:  Solving for p, Initial residual = 1.49047e-05, Final residual = 6.47844e-07, No Iterations 2
time step continuity errors : sum local = 3.74199e-09, global = -1.41471e-09, cumulative = 2.95052e-06
smoothSolver:  Solving for omega, Initial residual = 1.00596e-08, Final residual = 1.25368e-09, No Iterations 1
smoothSolver:  Solving for k, Initial residual = 1.55371e-08, Final residual = 1.07642e-09, No Iterations 1
ExecutionTime = 76.27 s  ClockTime = 76 s

forces forcesFish write:
    Sum of forces
        Total    : (0.0774847 -0.00123078 0.000538582)
        Pressure : (0.0282465 -0.0014205 0.000532814)
        Viscous  : (0.0492382 0.000189719 5.76731e-06)
    Sum of moments
        Total    : (-4.29828e-06 -0.000192611 0.00103502)
        Pressure : (-4.43352e-06 -0.00018593 0.000920284)
        Viscous  : (1.35241e-07 -6.68111e-06 0.000114741)
    writing force and moment files.

Time = 139

smoothSolver:  Solving for Ux, Initial residual = 1.87897e-07, Final residual = 1.55515e-08, No Iterations 1
smoothSolver:  Solving for Uy, Initial residual = 2.24183e-06, Final residual = 2.00855e-07, No Iterations 1
smoothSolver:  Solving for Uz, Initial residual = 9.46715e-06, Final residual = 8.28382e-07, No Iterations 1
GAMG:  Solving for p, Initial residual = 1.40224e-05, Final residual = 6.73257e-07, No Iterations 2
time step continuity errors : sum local = 3.88877e-09, global = -2.25943e-09, cumulative = 2.94826e-06
smoothSolver:  Solving for omega, Initial residual = 6.21938e-09, Final residual = 6.21938e-09, No Iterations 0
smoothSolver:  Solving for k, Initial residual = 1.43463e-08, Final residual = 9.94615e-10, No Iterations 1
ExecutionTime = 76.77 s  ClockTime = 76 s


SIMPLE solution converged in 139 iterations

forces forcesFish write:
    Sum of forces
        Total    : (0.0774848 -0.00123029 0.000538459)
        Pressure : (0.0282467 -0.00142001 0.000532692)
        Viscous  : (0.0492381 0.000189721 5.76696e-06)
    Sum of moments
        Total    : (-4.2976e-06 -0.000192559 0.00103522)
        Pressure : (-4.43296e-06 -0.000185878 0.000920484)
        Viscous  : (1.35353e-07 -6.68107e-06 0.000114739)
    writing force and moment files.

End

