/*---------------------------------------------------------------------------*\
| =========                 |                                                 |
| \\      /  F ield         | OpenFOAM: The Open Source CFD Toolbox           |
|  \\    /   O peration     | Version:  2512                                  |
|   \\  /    A nd           | Website:  www.openfoam.com                      |
|    \\/     M anipulation  |                                                 |
\*---------------------------------------------------------------------------*/
Build  : _bd2b6720-20260127 OPENFOAM=2512 version=2512
Arch   : "LSB;label=32;scalar=64"
Exec   : simpleFoam
Date   : Mar 28 2026
Time   : 17:49:12
Host   : mathias-laptop
PID    : 11508
I/O    : uncollated
Case   : /home/mat/OpenFOAM/mat-run/speed_sweep_runs/U_0p8
nProcs : 1
trapFpe: Floating point exception trapping enabled (FOAM_SIGFPE).
memory pool : not available
fileModificationChecking : Monitoring run-time modified files using timeStampMaster (fileModificationSkew 5, maxFileModificationPolls 20)
allowSystemOperations : Allowing user-supplied system call operations

// * * * * * * * * * * * * * * * * * * * * * * * * * * * * * * * * * * * * * //
Create time

Create mesh for time = 0


SIMPLE: convergence criteria
    field p	 tolerance 0.0001
    field U	 tolerance 1e-05
    field "(k|omega)"	 tolerance 1e-05

Reading field p

Reading field U

Reading/calculating face flux field phi

Selecting incompressible transport model Newtonian
Selecting turbulence model type RAS
Selecting RAS turbulence model kOmegaSST
Selecting patchDistMethod meshWave
RAS
{
    RASModel        kOmegaSST;
    turbulence      on;
    printCoeffs     on;
    alphaK1         0.85;
    alphaK2         1;
    alphaOmega1     0.5;
    alphaOmega2     0.856;
    gamma1          0.555556;
    gamma2          0.44;
    beta1           0.075;
    beta2           0.0828;
    betaStar        0.09;
    a1              0.31;
    b1              1;
    c1              10;
    F3              false;
    decayControl    false;
    kInf            0;
    omegaInf        0;
}

No MRF models present

No finite volume options present

Starting time loop

forces forcesFish:
    rho: rhoInf
    Freestream density (rhoInf) set to 1000
    Not including porosity effects

Time = 1

smoothSolver:  Solving for Ux, Initial residual = 0.999999, Final residual = 0.0302197, No Iterations 2
smoothSolver:  Solving for Uy, Initial residual = 1, Final residual = 0.0520027, No Iterations 2
smoothSolver:  Solving for Uz, Initial residual = 1, Final residual = 0.0453485, No Iterations 2
GAMG:  Solving for p, Initial residual = 1, Final residual = 0.0519501, No Iterations 5
time step continuity errors : sum local = 1.18465e-05, global = -1.38008e-06, cumulative = -1.38008e-06
smoothSolver:  Solving for omega, Initial residual = 0.00722705, Final residual = 0.000272639, No Iterations 1
bounding omega, min: -17.8486 max: 11487.6 average: 123.963
smoothSolver:  Solving for k, Initial residual = 1, Final residual = 0.0362174, No Iterations 1
ExecutionTime = 1.96 s  ClockTime = 2 s

forces forcesFish write:
    Sum of forces
        Total    : (1.18222 0.168263 -0.000138862)
        Pressure : (1.01355 0.168066 -0.000138825)
        Viscous  : (0.168667 0.000196499 -3.62333e-08)
    Sum of moments
        Total    : (-0.000182621 0.00043952 0.0738762)
        Pressure : (-0.000182408 0.00044098 0.0736925)
        Viscous  : (-2.13678e-07 -1.45982e-06 0.000183696)
    writing force and moment files.

Time = 2

smoothSolver:  Solving for Ux, Initial residual = 0.0151223, Final residual = 0.00068228, No Iterations 2
smoothSolver:  Solving for Uy, Initial residual = 0.0825891, Final residual = 0.00582439, No Iterations 2
smoothSolver:  Solving for Uz, Initial residual = 0.352645, Final residual = 0.0267294, No Iterations 2
GAMG:  Solving for p, Initial residual = 0.224749, Final residual = 0.0182977, No Iterations 3
time step continuity errors : sum local = 2.39658e-05, global = -1.47007e-06, cumulative = -2.85015e-06
smoothSolver:  Solving for omega, Initial residual = 0.00436972, Final residual = 0.000157042, No Iterations 1
smoothSolver:  Solving for k, Initial residual = 0.411186, Final residual = 0.0154938, No Iterations 1
ExecutionTime = 2.56 s  ClockTime = 3 s

forces forcesFish write:
    Sum of forces
        Total    : (1.47003 0.226925 0.00117486)
        Pressure : (1.30327 0.226824 0.00118098)
        Viscous  : (0.166766 0.000100329 -6.12087e-06)
    Sum of moments
        Total    : (-0.000208454 0.000119257 0.0950441)
        Pressure : (-0.000208654 0.00012297 0.0949212)
        Viscous  : (1.99672e-07 -3.71214e-06 0.000122904)
    writing force and moment files.

Time = 3

smoothSolver:  Solving for Ux, Initial residual = 0.00420935, Final residual = 0.000196756, No Iterations 2
smoothSolver:  Solving for Uy, Initial residual = 0.0383239, Final residual = 0.00265759, No Iterations 2
smoothSolver:  Solving for Uz, Initial residual = 0.215742, Final residual = 0.0160552, No Iterations 2
GAMG:  Solving for p, Initial residual = 0.453646, Final residual = 0.0178547, No Iterations 3
time step continuity errors : sum local = 1.70172e-05, global = -1.61833e-06, cumulative = -4.46848e-06
smoothSolver:  Solving for omega, Initial residual = 0.00303977, Final residual = 0.000114484, No Iterations 1
smoothSolver:  Solving for k, Initial residual = 0.236479, Final residual = 0.00919944, No Iterations 1
ExecutionTime = 3.14 s  ClockTime = 3 s

forces forcesFish write:
    Sum of forces
        Total    : (1.3948 0.214329 -0.000645043)
        Pressure : (1.22918 0.214342 -0.000635154)
        Viscous  : (0.165618 -1.24501e-05 -9.8893e-06)
    Sum of moments
        Total    : (-0.000179378 0.000386115 0.087555)
        Pressure : (-0.000179992 0.000391503 0.0875035)
        Viscous  : (6.14476e-07 -5.38879e-06 5.15492e-05)
    writing force and moment files.

Time = 4

smoothSolver:  Solving for Ux, Initial residual = 0.00231716, Final residual = 0.000106851, No Iterations 2
smoothSolver:  Solving for Uy, Initial residual = 0.020959, Final residual = 0.00142758, No Iterations 2
smoothSolver:  Solving for Uz, Initial residual = 0.134619, Final residual = 0.00981187, No Iterations 2
GAMG:  Solving for p, Initial residual = 0.176848, Final residual = 0.0079817, No Iterations 3
time step continuity errors : sum local = 2.72321e-05, global = -1.63422e-06, cumulative = -6.1027e-06
smoothSolver:  Solving for omega, Initial residual = 0.00224076, Final residual = 8.7756e-05, No Iterations 1
smoothSolver:  Solving for k, Initial residual = 0.155545, Final residual = 0.00620698, No Iterations 1
ExecutionTime = 3.73 s  ClockTime = 4 s

forces forcesFish write:
    Sum of forces
        Total    : (1.122 0.161473 -0.00363341)
        Pressure : (0.957324 0.161595 -0.00362611)
        Viscous  : (0.164676 -0.000121859 -7.29288e-06)
    Sum of moments
        Total    : (-0.000115988 0.000910355 0.064349)
        Pressure : (-0.000116844 0.000917758 0.0643604)
        Viscous  : (8.55961e-07 -7.40289e-06 -1.14717e-05)
    writing force and moment files.

Time = 5

smoothSolver:  Solving for Ux, Initial residual = 0.00144603, Final residual = 6.41555e-05, No Iterations 2
smoothSolver:  Solving for Uy, Initial residual = 0.0118822, Final residual = 0.000786824, No Iterations 2
smoothSolver:  Solving for Uz, Initial residual = 0.0821094, Final residual = 0.00577567, No Iterations 2
GAMG:  Solving for p, Initial residual = 0.0898069, Final residual = 0.00462944, No Iterations 3
time step continuity errors : sum local = 3.26365e-05, global = -1.22875e-06, cumulative = -7.33145e-06
smoothSolver:  Solving for omega, Initial residual = 0.00171329, Final residual = 6.91295e-05, No Iterations 1
smoothSolver:  Solving for k, Initial residual = 0.110918, Final residual = 0.00452055, No Iterations 1
ExecutionTime = 4.33 s  ClockTime = 4 s

forces forcesFish write:
    Sum of forces
        Total    : (0.778046 0.095098 -0.00591825)
        Pressure : (0.614099 0.0953058 -0.00591453)
        Viscous  : (0.163947 -0.000207819 -3.72037e-06)
    Sum of moments
        Total    : (-3.86884e-05 0.0013478 0.0361048)
        Pressure : (-3.96003e-05 0.00135561 0.0361577)
        Viscous  : (9.11965e-07 -7.8088e-06 -5.28981e-05)
    writing force and moment files.

Time = 6

smoothSolver:  Solving for Ux, Initial residual = 0.00101741, Final residual = 3.9906e-05, No Iterations 2
smoothSolver:  Solving for Uy, Initial residual = 0.00672772, Final residual = 0.0003723, No Iterations 2
smoothSolver:  Solving for Uz, Initial residual = 0.0462188, Final residual = 0.00260308, No Iterations 2
GAMG:  Solving for p, Initial residual = 0.0506739, Final residual = 0.00280528, No Iterations 3
time step continuity errors : sum local = 3.05012e-05, global = -5.10402e-07, cumulative = -7.84185e-06
smoothSolver:  Solving for omega, Initial residual = 0.00134639, Final residual = 5.55772e-05, No Iterations 1
smoothSolver:  Solving for k, Initial residual = 0.0835256, Final residual = 0.00346701, No Iterations 1
ExecutionTime = 4.89 s  ClockTime = 5 s

forces forcesFish write:
    Sum of forces
        Total    : (0.457759 0.0352669 -0.00638134)
        Pressure : (0.294371 0.035525 -0.0063789)
        Viscous  : (0.163389 -0.00025818 -2.43993e-06)
    Sum of moments
        Total    : (3.44965e-05 0.00144394 0.0108918)
        Pressure : (3.36801e-05 0.00144998 0.010961)
        Viscous  : (8.16443e-07 -6.03999e-06 -6.92038e-05)
    writing force and moment files.

Time = 7

smoothSolver:  Solving for Ux, Initial residual = 0.000849515, Final residual = 2.72525e-05, No Iterations 2
smoothSolver:  Solving for Uy, Initial residual = 0.00521694, Final residual = 0.000179266, No Iterations 2
smoothSolver:  Solving for Uz, Initial residual = 0.0394894, Final residual = 0.00141628, No Iterations 2
GAMG:  Solving for p, Initial residual = 0.0321315, Final residual = 0.00168805, No Iterations 3
time step continuity errors : sum local = 2.37578e-05, global = 3.03935e-07, cumulative = -7.53792e-06
smoothSolver:  Solving for omega, Initial residual = 0.00108139, Final residual = 4.54563e-05, No Iterations 1
smoothSolver:  Solving for k, Initial residual = 0.0654566, Final residual = 0.00276222, No Iterations 1
ExecutionTime = 5.46 s  ClockTime = 6 s

forces forcesFish write:
    Sum of forces
        Total    : (0.217422 -0.00642457 -0.00517575)
        Pressure : (0.054493 -0.0061454 -0.00518604)
        Viscous  : (0.162929 -0.000279174 1.0291e-05)
    Sum of moments
        Total    : (9.13593e-05 0.00122789 -0.00663689)
        Pressure : (9.08598e-05 0.00123636 -0.00656912)
        Viscous  : (4.99482e-07 -8.47302e-06 -6.77771e-05)
    writing force and moment files.

Time = 8

smoothSolver:  Solving for Ux, Initial residual = 0.000797077, Final residual = 2.42668e-05, No Iterations 2
smoothSolver:  Solving for Uy, Initial residual = 0.00655884, Final residual = 0.000300537, No Iterations 2
smoothSolver:  Solving for Uz, Initial residual = 0.0653786, Final residual = 0.00358295, No Iterations 2
GAMG:  Solving for p, Initial residual = 0.0253359, Final residual = 0.00235813, No Iterations 2
time step continuity errors : sum local = 3.78783e-05, global = 8.27691e-07, cumulative = -6.71023e-06
smoothSolver:  Solving for omega, Initial residual = 0.000884371, Final residual = 3.77649e-05, No Iterations 1
smoothSolver:  Solving for k, Initial residual = 0.0529105, Final residual = 0.00226724, No Iterations 1
ExecutionTime = 6.03 s  ClockTime = 6 s

forces forcesFish write:
    Sum of forces
        Total    : (0.0881673 -0.0251363 -0.00472979)
        Pressure : (-0.07436 -0.0248557 -0.00474105)
        Viscous  : (0.162527 -0.000280613 1.126e-05)
    Sum of moments
        Total    : (0.000110324 0.00113176 -0.0145254)
        Pressure : (0.000110045 0.00113826 -0.0144681)
        Viscous  : (2.79585e-07 -6.50765e-06 -5.72888e-05)
    writing force and moment files.

Time = 9

smoothSolver:  Solving for Ux, Initial residual = 0.0007738, Final residual = 2.33434e-05, No Iterations 2
smoothSolver:  Solving for Uy, Initial residual = 0.00759539, Final residual = 0.000385028, No Iterations 2
smoothSolver:  Solving for Uz, Initial residual = 0.0823454, Final residual = 0.00488765, No Iterations 2
GAMG:  Solving for p, Initial residual = 0.027073, Final residual = 0.00201661, No Iterations 2
time step continuity errors : sum local = 3.34028e-05, global = 1.74646e-06, cumulative = -4.96377e-06
smoothSolver:  Solving for omega, Initial residual = 0.000733904, Final residual = 3.17752e-05, No Iterations 1
smoothSolver:  Solving for k, Initial residual = 0.0438207, Final residual = 0.00190399, No Iterations 1
ExecutionTime = 6.59 s  ClockTime = 7 s

forces forcesFish write:
    Sum of forces
        Total    : (0.0427975 -0.0259868 -0.00292902)
        Pressure : (-0.119338 -0.0257302 -0.0029394)
        Viscous  : (0.162136 -0.000256608 1.03766e-05)
    Sum of moments
        Total    : (0.000115218 0.000768469 -0.015081)
        Pressure : (0.000115102 0.000772962 -0.015041)
        Viscous  : (1.16026e-07 -4.49273e-06 -3.99863e-05)
    writing force and moment files.

Time = 10

smoothSolver:  Solving for Ux, Initial residual = 0.000745764, Final residual = 2.1753e-05, No Iterations 2
smoothSolver:  Solving for Uy, Initial residual = 0.00765875, Final residual = 0.000392049, No Iterations 2
smoothSolver:  Solving for Uz, Initial residual = 0.0772293, Final residual = 0.0045957, No Iterations 2
GAMG:  Solving for p, Initial residual = 0.0310861, Final residual = 0.00241242, No Iterations 2
time step continuity errors : sum local = 3.88591e-05, global = 2.67861e-06, cumulative = -2.28516e-06
smoothSolver:  Solving for omega, Initial residual = 0.000616349, Final residual = 2.70163e-05, No Iterations 1
smoothSolver:  Solving for k, Initial residual = 0.0369797, Final residual = 0.00162705, No Iterations 1
ExecutionTime = 7.14 s  ClockTime = 7 s

forces forcesFish write:
    Sum of forces
        Total    : (0.0553915 -0.0150385 -0.00046163)
        Pressure : (-0.106288 -0.0148302 -0.000474847)
        Viscous  : (0.16168 -0.000208264 1.32178e-05)
    Sum of moments
        Total    : (0.000107622 0.000295844 -0.0107633)
        Pressure : (0.000107641 0.000300712 -0.0107446)
        Viscous  : (-1.8871e-08 -4.86745e-06 -1.86841e-05)
    writing force and moment files.

Time = 11

smoothSolver:  Solving for Ux, Initial residual = 0.000693697, Final residual = 1.90282e-05, No Iterations 2
smoothSolver:  Solving for Uy, Initial residual = 0.00687833, Final residual = 0.000332699, No Iterations 2
smoothSolver:  Solving for Uz, Initial residual = 0.0630691, Final residual = 0.00353126, No Iterations 2
GAMG:  Solving for p, Initial residual = 0.0339983, Final residual = 0.00271932, No Iterations 2
time step continuity errors : sum local = 4.08038e-05, global = 3.38615e-06, cumulative = 1.10099e-06
smoothSolver:  Solving for omega, Initial residual = 0.000522731, Final residual = 2.31869e-05, No Iterations 1
smoothSolver:  Solving for k, Initial residual = 0.0316554, Final residual = 0.00140862, No Iterations 1
ExecutionTime = 7.69 s  ClockTime = 8 s

forces forcesFish write:
    Sum of forces
        Total    : (0.102203 0.00187457 0.00191332)
        Pressure : (-0.0588638 0.00201418 0.00189834)
        Viscous  : (0.161067 -0.000139614 1.49764e-05)
    Sum of moments
        Total    : (9.01846e-05 -0.000112185 -0.00393905)
        Pressure : (9.02449e-05 -0.000106541 -0.00394309)
        Viscous  : (-6.02635e-08 -5.64379e-06 4.04114e-06)
    writing force and moment files.

Time = 12

smoothSolver:  Solving for Ux, Initial residual = 0.000622111, Final residual = 1.57298e-05, No Iterations 2
smoothSolver:  Solving for Uy, Initial residual = 0.00582158, Final residual = 0.000236977, No Iterations 2
smoothSolver:  Solving for Uz, Initial residual = 0.0482736, Final residual = 0.00225908, No Iterations 2
GAMG:  Solving for p, Initial residual = 0.0352061, Final residual = 0.00290501, No Iterations 2
time step continuity errors : sum local = 3.91352e-05, global = 3.76459e-06, cumulative = 4.86558e-06
smoothSolver:  Solving for omega, Initial residual = 0.000446958, Final residual = 2.00409e-05, No Iterations 1
smoothSolver:  Solving for k, Initial residual = 0.0274315, Final residual = 0.00123302, No Iterations 1
ExecutionTime = 8.24 s  ClockTime = 8 s

forces forcesFish write:
    Sum of forces
        Total    : (0.16158 0.0189741 0.00344178)
        Pressure : (0.00127541 0.019045 0.00342569)
        Viscous  : (0.160305 -7.08914e-05 1.60893e-05)
    Sum of moments
        Total    : (6.65966e-05 -0.000300523 0.00313798)
        Pressure : (6.66244e-05 -0.000293758 0.00311629)
        Viscous  : (-2.77596e-08 -6.76585e-06 2.16864e-05)
    writing force and moment files.

Time = 13

smoothSolver:  Solving for Ux, Initial residual = 0.000548477, Final residual = 1.2928e-05, No Iterations 2
smoothSolver:  Solving for Uy, Initial residual = 0.00520856, Final residual = 0.000170023, No Iterations 2
smoothSolver:  Solving for Uz, Initial residual = 0.0385426, Final residual = 0.00126569, No Iterations 2
GAMG:  Solving for p, Initial residual = 0.0349354, Final residual = 0.00288111, No Iterations 2
time step continuity errors : sum local = 3.40849e-05, global = 3.80933e-06, cumulative = 8.67491e-06
smoothSolver:  Solving for omega, Initial residual = 0.000385014, Final residual = 1.74362e-05, No Iterations 1
smoothSolver:  Solving for k, Initial residual = 0.0239752, Final residual = 0.00108725, No Iterations 1
ExecutionTime = 8.79 s  ClockTime = 9 s

forces forcesFish write:
    Sum of forces
        Total    : (0.21664 0.0320495 0.00371964)
        Pressure : (0.0572455 0.0320461 0.00370606)
        Viscous  : (0.159394 3.45756e-06 1.35785e-05)
    Sum of moments
        Total    : (4.15401e-05 -0.000203473 0.00882233)
        Pressure : (4.14323e-05 -0.000196733 0.00878385)
        Viscous  : (1.07844e-07 -6.74015e-06 3.84873e-05)
    writing force and moment files.

Time = 14

smoothSolver:  Solving for Ux, Initial residual = 0.000483123, Final residual = 1.13633e-05, No Iterations 2
smoothSolver:  Solving for Uy, Initial residual = 0.00540058, Final residual = 0.000186335, No Iterations 2
smoothSolver:  Solving for Uz, Initial residual = 0.0410045, Final residual = 0.00151379, No Iterations 2
GAMG:  Solving for p, Initial residual = 0.0354147, Final residual = 0.0026517, No Iterations 2
time step continuity errors : sum local = 2.75265e-05, global = 3.57019e-06, cumulative = 1.22451e-05
smoothSolver:  Solving for omega, Initial residual = 0.000333575, Final residual = 1.52524e-05, No Iterations 1
smoothSolver:  Solving for k, Initial residual = 0.0211244, Final residual = 0.000965274, No Iterations 1
ExecutionTime = 9.35 s  ClockTime = 9 s

forces forcesFish write:
    Sum of forces
        Total    : (0.257112 0.0390372 0.00287225)
        Pressure : (0.0987042 0.0389791 0.00286232)
        Viscous  : (0.158407 5.80854e-05 9.93381e-06)
    Sum of moments
        Total    : (1.85044e-05 0.000108536 0.0122549)
        Pressure : (1.82551e-05 0.000114823 0.0122077)
        Viscous  : (2.49341e-07 -6.28626e-06 4.71327e-05)
    writing force and moment files.

Time = 15

smoothSolver:  Solving for Ux, Initial residual = 0.000428795, Final residual = 1.03871e-05, No Iterations 2
smoothSolver:  Solving for Uy, Initial residual = 0.00576886, Final residual = 0.000219189, No Iterations 2
smoothSolver:  Solving for Uz, Initial residual = 0.0458378, Final residual = 0.00198711, No Iterations 2
GAMG:  Solving for p, Initial residual = 0.0368812, Final residual = 0.00242085, No Iterations 2
time step continuity errors : sum local = 2.26117e-05, global = 3.21626e-06, cumulative = 1.54614e-05
smoothSolver:  Solving for omega, Initial residual = 0.000290359, Final residual = 1.3389e-05, No Iterations 1
smoothSolver:  Solving for k, Initial residual = 0.0187262, Final residual = 0.000861218, No Iterations 1
ExecutionTime = 9.91 s  ClockTime = 10 s

forces forcesFish write:
    Sum of forces
        Total    : (0.279576 0.0401426 0.00123419)
        Pressure : (0.122202 0.0400425 0.00122776)
        Viscous  : (0.157373 0.000100028 6.42992e-06)
    Sum of moments
        Total    : (2.54485e-06 0.000554832 0.0133961)
        Pressure : (2.17014e-06 0.000560484 0.013344)
        Viscous  : (3.74715e-07 -5.65156e-06 5.21393e-05)
    writing force and moment files.

Time = 16

smoothSolver:  Solving for Ux, Initial residual = 0.000387034, Final residual = 9.39146e-06, No Iterations 2
smoothSolver:  Solving for Uy, Initial residual = 0.00594515, Final residual = 0.000229075, No Iterations 2
smoothSolver:  Solving for Uz, Initial residual = 0.04537, Final residual = 0.00201035, No Iterations 2
GAMG:  Solving for p, Initial residual = 0.0387255, Final residual = 0.00247906, No Iterations 2
time step continuity errors : sum local = 2.18814e-05, global = 2.77259e-06, cumulative = 1.8234e-05
smoothSolver:  Solving for omega, Initial residual = 0.000253643, Final residual = 1.17807e-05, No Iterations 1
smoothSolver:  Solving for k, Initial residual = 0.0166845, Final residual = 0.000771538, No Iterations 1
ExecutionTime = 10.46 s  ClockTime = 11 s

forces forcesFish write:
    Sum of forces
        Total    : (0.286672 0.0371381 -0.000753956)
        Pressure : (0.130333 0.0370093 -0.000757898)
        Viscous  : (0.156339 0.000128881 3.94138e-06)
    Sum of moments
        Total    : (-5.49543e-06 0.00103182 0.0128095)
        Pressure : (-5.94747e-06 0.0010369 0.012755)
        Viscous  : (4.52036e-07 -5.08214e-06 5.44795e-05)
    writing force and moment files.

Time = 17

smoothSolver:  Solving for Ux, Initial residual = 0.000349943, Final residual = 8.38222e-06, No Iterations 2
smoothSolver:  Solving for Uy, Initial residual = 0.00578769, Final residual = 0.000212878, No Iterations 2
smoothSolver:  Solving for Uz, Initial residual = 0.0392184, Final residual = 0.00162837, No Iterations 2
GAMG:  Solving for p, Initial residual = 0.0392627, Final residual = 0.00249256, No Iterations 2
time step continuity errors : sum local = 2.18131e-05, global = 1.90846e-06, cumulative = 2.01424e-05
smoothSolver:  Solving for omega, Initial residual = 0.000222139, Final residual = 1.03703e-05, No Iterations 1
smoothSolver:  Solving for k, Initial residual = 0.0149379, Final residual = 0.000694064, No Iterations 1
ExecutionTime = 11.03 s  ClockTime = 11 s

forces forcesFish write:
    Sum of forces
        Total    : (0.283844 0.0317736 -0.00290598)
        Pressure : (0.128512 0.0316258 -0.00290837)
        Viscous  : (0.155333 0.000147815 2.38945e-06)
    Sum of moments
        Total    : (-7.05154e-06 0.00149679 0.0111553)
        Pressure : (-7.54356e-06 0.00150136 0.0110998)
        Viscous  : (4.92025e-07 -4.57261e-06 5.5569e-05)
    writing force and moment files.

Time = 18

smoothSolver:  Solving for Ux, Initial residual = 0.000317555, Final residual = 7.41126e-06, No Iterations 2
smoothSolver:  Solving for Uy, Initial residual = 0.00535376, Final residual = 0.000175292, No Iterations 2
smoothSolver:  Solving for Uz, Initial residual = 0.0316513, Final residual = 0.00112446, No Iterations 2
GAMG:  Solving for p, Initial residual = 0.0373353, Final residual = 0.00229989, No Iterations 2
time step continuity errors : sum local = 2.06632e-05, global = 9.14691e-07, cumulative = 2.10571e-05
smoothSolver:  Solving for omega, Initial residual = 0.000194943, Final residual = 9.13149e-06, No Iterations 1
smoothSolver:  Solving for k, Initial residual = 0.0134166, Final residual = 0.000625974, No Iterations 1
ExecutionTime = 11.57 s  ClockTime = 12 s

forces forcesFish write:
    Sum of forces
        Total    : (0.275773 0.0257011 -0.00493883)
        Pressure : (0.121404 0.0255408 -0.00493844)
        Viscous  : (0.154369 0.000160319 -3.96937e-07)
    Sum of moments
        Total    : (-2.89958e-06 0.00189025 0.00904699)
        Pressure : (-3.42761e-06 0.00189358 0.00899066)
        Viscous  : (5.28037e-07 -3.32534e-06 5.6332e-05)
    writing force and moment files.

Time = 19

smoothSolver:  Solving for Ux, Initial residual = 0.000291289, Final residual = 6.51143e-06, No Iterations 2
smoothSolver:  Solving for Uy, Initial residual = 0.00479614, Final residual = 0.000128169, No Iterations 2
smoothSolver:  Solving for Uz, Initial residual = 0.0255739, Final residual = 0.000685851, No Iterations 2
GAMG:  Solving for p, Initial residual = 0.0333934, Final residual = 0.00196969, No Iterations 2
time step continuity errors : sum local = 1.8563e-05, global = -7.04218e-08, cumulative = 2.09867e-05
smoothSolver:  Solving for omega, Initial residual = 0.000171373, Final residual = 8.04521e-06, No Iterations 1
smoothSolver:  Solving for k, Initial residual = 0.0120956, Final residual = 0.000566379, No Iterations 1
ExecutionTime = 12.12 s  ClockTime = 12 s

forces forcesFish write:
    Sum of forces
        Total    : (0.266453 0.0204228 -0.00654231)
        Pressure : (0.112998 0.0202519 -0.0065428)
        Viscous  : (0.153455 0.000170896 4.90639e-07)
    Sum of moments
        Total    : (5.95895e-06 0.00215877 0.00704088)
        Pressure : (5.47383e-06 0.00216218 0.00698304)
        Viscous  : (4.85126e-07 -3.40578e-06 5.78351e-05)
    writing force and moment files.

Time = 20

smoothSolver:  Solving for Ux, Initial residual = 0.000265237, Final residual = 5.7053e-06, No Iterations 2
smoothSolver:  Solving for Uy, Initial residual = 0.0043925, Final residual = 0.000101952, No Iterations 2
smoothSolver:  Solving for Uz, Initial residual = 0.0234044, Final residual = 0.000614479, No Iterations 2
GAMG:  Solving for p, Initial residual = 0.0283975, Final residual = 0.00163266, No Iterations 2
time step continuity errors : sum local = 1.62445e-05, global = -8.54113e-07, cumulative = 2.01326e-05
smoothSolver:  Solving for omega, Initial residual = 0.000150896, Final residual = 7.09581e-06, No Iterations 1
smoothSolver:  Solving for k, Initial residual = 0.0109333, Final residual = 0.000513524, No Iterations 1
ExecutionTime = 12.69 s  ClockTime = 13 s

forces forcesFish write:
    Sum of forces
        Total    : (0.258586 0.0168773 -0.00750685)
        Pressure : (0.105998 0.0166974 -0.00750685)
        Viscous  : (0.152588 0.00017991 9.44458e-10)
    Sum of moments
        Total    : (1.76187e-05 0.00227615 0.00551524)
        Pressure : (1.71603e-05 0.00227906 0.00545584)
        Viscous  : (4.58386e-07 -2.9075e-06 5.93995e-05)
    writing force and moment files.

Time = 21

smoothSolver:  Solving for Ux, Initial residual = 0.000236068, Final residual = 5.05377e-06, No Iterations 2
smoothSolver:  Solving for Uy, Initial residual = 0.00422193, Final residual = 0.000101904, No Iterations 2
smoothSolver:  Solving for Uz, Initial residual = 0.0225345, Final residual = 0.000683283, No Iterations 2
GAMG:  Solving for p, Initial residual = 0.0244798, Final residual = 0.00141183, No Iterations 2
time step continuity errors : sum local = 1.47193e-05, global = -1.59432e-06, cumulative = 1.85382e-05
smoothSolver:  Solving for omega, Initial residual = 0.000133038, Final residual = 6.26669e-06, No Iterations 1
smoothSolver:  Solving for k, Initial residual = 0.00990538, Final residual = 0.000466421, No Iterations 1
ExecutionTime = 13.26 s  ClockTime = 13 s

forces forcesFish write:
    Sum of forces
        Total    : (0.253507 0.0152854 -0.00777913)
        Pressure : (0.10174 0.015092 -0.00777917)
        Viscous  : (0.151766 0.000193463 4.14024e-08)
    Sum of moments
        Total    : (2.95317e-05 0.00224839 0.00461906)
        Pressure : (2.91111e-05 0.00225106 0.00455619)
        Viscous  : (4.20536e-07 -2.66928e-06 6.28678e-05)
    writing force and moment files.

Time = 22

smoothSolver:  Solving for Ux, Initial residual = 0.000206948, Final residual = 4.52919e-06, No Iterations 2
smoothSolver:  Solving for Uy, Initial residual = 0.00410881, Final residual = 0.000105443, No Iterations 2
smoothSolver:  Solving for Uz, Initial residual = 0.021459, Final residual = 0.000716766, No Iterations 2
GAMG:  Solving for p, Initial residual = 0.0223748, Final residual = 0.00133068, No Iterations 2
time step continuity errors : sum local = 1.43218e-05, global = -2.23435e-06, cumulative = 1.63039e-05
smoothSolver:  Solving for omega, Initial residual = 0.000117386, Final residual = 5.54031e-06, No Iterations 1
smoothSolver:  Solving for k, Initial residual = 0.00899398, Final residual = 0.000424362, No Iterations 1
ExecutionTime = 13.83 s  ClockTime = 14 s

forces forcesFish write:
    Sum of forces
        Total    : (0.251134 0.0152666 -0.00746386)
        Pressure : (0.100157 0.0150582 -0.00746376)
        Viscous  : (0.150977 0.000208419 -1.00908e-07)
    Sum of moments
        Total    : (3.96758e-05 0.00210916 0.00429162)
        Pressure : (3.92813e-05 0.00211162 0.00422508)
        Viscous  : (3.94471e-07 -2.46412e-06 6.654e-05)
    writing force and moment files.

Time = 23

smoothSolver:  Solving for Ux, Initial residual = 0.000180494, Final residual = 4.02629e-06, No Iterations 2
smoothSolver:  Solving for Uy, Initial residual = 0.0039964, Final residual = 0.000102952, No Iterations 2
smoothSolver:  Solving for Uz, Initial residual = 0.0199668, Final residual = 0.000670354, No Iterations 2
GAMG:  Solving for p, Initial residual = 0.0209956, Final residual = 0.00129799, No Iterations 2
time step continuity errors : sum local = 1.42018e-05, global = -2.67314e-06, cumulative = 1.36308e-05
smoothSolver:  Solving for omega, Initial residual = 0.000103603, Final residual = 4.90407e-06, No Iterations 1
smoothSolver:  Solving for k, Initial residual = 0.00817296, Final residual = 0.000386222, No Iterations 1
ExecutionTime = 14.4 s  ClockTime = 14 s

forces forcesFish write:
    Sum of forces
        Total    : (0.250668 0.0162506 -0.00671016)
        Pressure : (0.100449 0.0160244 -0.00671065)
        Viscous  : (0.150219 0.000226194 4.84476e-07)
    Sum of moments
        Total    : (4.76381e-05 0.00189188 0.00437179)
        Pressure : (4.72717e-05 0.00189455 0.00430087)
        Viscous  : (3.66374e-07 -2.66818e-06 7.0921e-05)
    writing force and moment files.

Time = 24

smoothSolver:  Solving for Ux, Initial residual = 0.000158925, Final residual = 3.53437e-06, No Iterations 2
smoothSolver:  Solving for Uy, Initial residual = 0.00387194, Final residual = 9.31439e-05, No Iterations 2
smoothSolver:  Solving for Uz, Initial residual = 0.0181613, Final residual = 0.000559311, No Iterations 2
GAMG:  Solving for p, Initial residual = 0.0196387, Final residual = 0.00121369, No Iterations 2
time step continuity errors : sum local = 1.33246e-05, global = -2.85548e-06, cumulative = 1.07753e-05
smoothSolver:  Solving for omega, Initial residual = 9.14307e-05, Final residual = 4.34428e-06, No Iterations 1
smoothSolver:  Solving for k, Initial residual = 0.00743667, Final residual = 0.000351823, No Iterations 1
ExecutionTime = 14.98 s  ClockTime = 15 s

forces forcesFish write:
    Sum of forces
        Total    : (0.251086 0.017726 -0.00564497)
        Pressure : (0.101603 0.0174806 -0.00564516)
        Viscous  : (0.149483 0.000245437 1.86897e-07)
    Sum of moments
        Total    : (5.32735e-05 0.00162593 0.00469591)
        Pressure : (5.29059e-05 0.00162856 0.00462044)
        Viscous  : (3.67591e-07 -2.62818e-06 7.54788e-05)
    writing force and moment files.

Time = 25

smoothSolver:  Solving for Ux, Initial residual = 0.000145321, Final residual = 3.08268e-06, No Iterations 2
smoothSolver:  Solving for Uy, Initial residual = 0.0037538, Final residual = 8.06355e-05, No Iterations 2
smoothSolver:  Solving for Uz, Initial residual = 0.0161826, Final residual = 0.00041192, No Iterations 2
GAMG:  Solving for p, Initial residual = 0.0187174, Final residual = 0.00110003, No Iterations 2
time step continuity errors : sum local = 1.19903e-05, global = -2.84081e-06, cumulative = 7.93446e-06
smoothSolver:  Solving for omega, Initial residual = 8.06315e-05, Final residual = 3.84881e-06, No Iterations 1
smoothSolver:  Solving for k, Initial residual = 0.00676943, Final residual = 0.000320503, No Iterations 1
ExecutionTime = 15.53 s  ClockTime = 16 s

forces forcesFish write:
    Sum of forces
        Total    : (0.25148 0.0191806 -0.00444134)
        Pressure : (0.102716 0.0189148 -0.00444364)
        Viscous  : (0.148765 0.000265845 2.29278e-06)
    Sum of moments
        Total    : (5.61276e-05 0.00135158 0.00509987)
        Pressure : (5.57867e-05 0.00135521 0.00501966)
        Viscous  : (3.40948e-07 -3.63602e-06 8.02135e-05)
    writing force and moment files.

Time = 26

smoothSolver:  Solving for Ux, Initial residual = 0.000136116, Final residual = 1.34426e-05, No Iterations 1
smoothSolver:  Solving for Uy, Initial residual = 0.00366453, Final residual = 7.30442e-05, No Iterations 2
smoothSolver:  Solving for Uz, Initial residual = 0.0147396, Final residual = 0.000299467, No Iterations 2
GAMG:  Solving for p, Initial residual = 0.0179976, Final residual = 0.000977615, No Iterations 2
time step continuity errors : sum local = 1.0503e-05, global = -2.65234e-06, cumulative = 5.28213e-06
smoothSolver:  Solving for omega, Initial residual = 7.10138e-05, Final residual = 3.40708e-06, No Iterations 1
smoothSolver:  Solving for k, Initial residual = 0.00616182, Final residual = 0.000291884, No Iterations 1
ExecutionTime = 16.07 s  ClockTime = 16 s

forces forcesFish write:
    Sum of forces
        Total    : (0.251409 0.0202567 -0.00331978)
        Pressure : (0.103297 0.0199698 -0.0033237)
        Viscous  : (0.148112 0.000286906 3.91969e-06)
    Sum of moments
        Total    : (5.63993e-05 0.00111869 0.00546335)
        Pressure : (5.60697e-05 0.00112317 0.00537801)
        Viscous  : (3.29602e-07 -4.4786e-06 8.53392e-05)
    writing force and moment files.

Time = 27

smoothSolver:  Solving for Ux, Initial residual = 0.00013058, Final residual = 1.23348e-05, No Iterations 1
smoothSolver:  Solving for Uy, Initial residual = 0.00355682, Final residual = 7.02999e-05, No Iterations 2
smoothSolver:  Solving for Uz, Initial residual = 0.013856, Final residual = 0.000258364, No Iterations 2
GAMG:  Solving for p, Initial residual = 0.0169442, Final residual = 0.000878499, No Iterations 2
time step continuity errors : sum local = 9.27392e-06, global = -2.3355e-06, cumulative = 2.94663e-06
smoothSolver:  Solving for omega, Initial residual = 6.24284e-05, Final residual = 3.01394e-06, No Iterations 1
smoothSolver:  Solving for k, Initial residual = 0.00560852, Final residual = 0.00026575, No Iterations 1
ExecutionTime = 16.61 s  ClockTime = 17 s

forces forcesFish write:
    Sum of forces
        Total    : (0.250517 0.0207238 -0.00246461)
        Pressure : (0.103042 0.0204165 -0.00247086)
        Viscous  : (0.147476 0.000307232 6.24952e-06)
    Sum of moments
        Total    : (5.47608e-05 0.00096516 0.00569312)
        Pressure : (5.44497e-05 0.000970756 0.00560287)
        Viscous  : (3.11128e-07 -5.59663e-06 9.02515e-05)
    writing force and moment files.

Time = 28

smoothSolver:  Solving for Ux, Initial residual = 0.000125004, Final residual = 1.14614e-05, No Iterations 1
smoothSolver:  Solving for Uy, Initial residual = 0.00339715, Final residual = 6.87735e-05, No Iterations 2
smoothSolver:  Solving for Uz, Initial residual = 0.0130673, Final residual = 0.000255141, No Iterations 2
GAMG:  Solving for p, Initial residual = 0.0156734, Final residual = 0.000816356, No Iterations 2
time step continuity errors : sum local = 8.4741e-06, global = -1.92829e-06, cumulative = 1.01834e-06
smoothSolver:  Solving for omega, Initial residual = 5.47468e-05, Final residual = 2.66373e-06, No Iterations 1
smoothSolver:  Solving for k, Initial residual = 0.00509842, Final residual = 0.000241615, No Iterations 1
ExecutionTime = 17.17 s  ClockTime = 17 s

forces forcesFish write:
    Sum of forces
        Total    : (0.248847 0.0205663 -0.00197305)
        Pressure : (0.101988 0.02024 -0.0019799)
        Viscous  : (0.146859 0.000326323 6.84437e-06)
    Sum of moments
        Total    : (5.21525e-05 0.00090637 0.00575773)
        Pressure : (5.18371e-05 0.000912363 0.00566282)
        Viscous  : (3.15413e-07 -5.99257e-06 9.49149e-05)
    writing force and moment files.

Time = 29

smoothSolver:  Solving for Ux, Initial residual = 0.000117729, Final residual = 1.05904e-05, No Iterations 1
smoothSolver:  Solving for Uy, Initial residual = 0.00319529, Final residual = 6.57938e-05, No Iterations 2
smoothSolver:  Solving for Uz, Initial residual = 0.0120348, Final residual = 0.000246427, No Iterations 2
GAMG:  Solving for p, Initial residual = 0.0146646, Final residual = 0.000781793, No Iterations 2
time step continuity errors : sum local = 8.00847e-06, global = -1.47038e-06, cumulative = -4.52044e-07
smoothSolver:  Solving for omega, Initial residual = 4.78694e-05, Final residual = 2.35169e-06, No Iterations 1
smoothSolver:  Solving for k, Initial residual = 0.00462945, Final residual = 0.000219412, No Iterations 1
ExecutionTime = 17.74 s  ClockTime = 18 s

forces forcesFish write:
    Sum of forces
        Total    : (0.246624 0.0199141 -0.00185708)
        Pressure : (0.100363 0.0195702 -0.00186459)
        Viscous  : (0.146261 0.00034385 7.51161e-06)
    Sum of moments
        Total    : (4.95049e-05 0.000939648 0.00567259)
        Pressure : (4.91902e-05 0.000946004 0.00557333)
        Viscous  : (3.14642e-07 -6.35564e-06 9.92661e-05)
    writing force and moment files.

Time = 30

smoothSolver:  Solving for Ux, Initial residual = 0.00010915, Final residual = 9.74971e-06, No Iterations 1
smoothSolver:  Solving for Uy, Initial residual = 0.00298403, Final residual = 6.05352e-05, No Iterations 2
smoothSolver:  Solving for Uz, Initial residual = 0.0109334, Final residual = 0.000219381, No Iterations 2
GAMG:  Solving for p, Initial residual = 0.0137153, Final residual = 0.000738998, No Iterations 2
time step continuity errors : sum local = 7.50652e-06, global = -9.87464e-07, cumulative = -1.43951e-06
smoothSolver:  Solving for omega, Initial residual = 4.17159e-05, Final residual = 2.07293e-06, No Iterations 1
smoothSolver:  Solving for k, Initial residual = 0.00419693, Final residual = 0.000198945, No Iterations 1
ExecutionTime = 18.31 s  ClockTime = 18 s

forces forcesFish write:
    Sum of forces
        Total    : (0.244131 0.0189346 -0.00207652)
        Pressure : (0.0984471 0.0185747 -0.00208436)
        Viscous  : (0.145684 0.000359809 7.84137e-06)
    Sum of moments
        Total    : (4.7465e-05 0.00105275 0.0054734)
        Pressure : (4.71491e-05 0.00105927 0.00537012)
        Viscous  : (3.15892e-07 -6.51933e-06 0.000103283)
    writing force and moment files.

Time = 31

smoothSolver:  Solving for Ux, Initial residual = 0.000100861, Final residual = 9.00685e-06, No Iterations 1
smoothSolver:  Solving for Uy, Initial residual = 0.00277865, Final residual = 0.000272323, No Iterations 1
smoothSolver:  Solving for Uz, Initial residual = 0.00984187, Final residual = 0.000957569, No Iterations 1
GAMG:  Solving for p, Initial residual = 0.0124714, Final residual = 0.000671281, No Iterations 2
time step continuity errors : sum local = 6.79197e-06, global = -4.51769e-07, cumulative = -1.89128e-06
smoothSolver:  Solving for omega, Initial residual = 3.62091e-05, Final residual = 1.82386e-06, No Iterations 1
smoothSolver:  Solving for k, Initial residual = 0.00379432, Final residual = 0.00017993, No Iterations 1
ExecutionTime = 18.85 s  ClockTime = 19 s

forces forcesFish write:
    Sum of forces
        Total    : (0.241666 0.0178187 -0.0025282)
        Pressure : (0.0965392 0.0174471 -0.00253639)
        Viscous  : (0.145127 0.000371598 8.19146e-06)
    Sum of moments
        Total    : (4.64172e-05 0.0012178 0.00520859)
        Pressure : (4.61042e-05 0.00122444 0.00510247)
        Viscous  : (3.13032e-07 -6.63808e-06 0.000106125)
    writing force and moment files.

Time = 32

smoothSolver:  Solving for Ux, Initial residual = 9.38853e-05, Final residual = 8.36474e-06, No Iterations 1
smoothSolver:  Solving for Uy, Initial residual = 0.00263763, Final residual = 0.000242176, No Iterations 1
smoothSolver:  Solving for Uz, Initial residual = 0.00907941, Final residual = 0.000824566, No Iterations 1
GAMG:  Solving for p, Initial residual = 0.0114406, Final residual = 0.000612299, No Iterations 2
time step continuity errors : sum local = 6.18817e-06, global = 5.26111e-08, cumulative = -1.83867e-06
smoothSolver:  Solving for omega, Initial residual = 3.13022e-05, Final residual = 1.60352e-06, No Iterations 1
smoothSolver:  Solving for k, Initial residual = 0.00342147, Final residual = 0.000162371, No Iterations 1
ExecutionTime = 19.38 s  ClockTime = 19 s

forces forcesFish write:
    Sum of forces
        Total    : (0.239436 0.0167216 -0.00313688)
        Pressure : (0.0948448 0.0163391 -0.00314499)
        Viscous  : (0.144592 0.00038253 8.11145e-06)
    Sum of moments
        Total    : (4.65302e-05 0.00141393 0.00492389)
        Pressure : (4.62162e-05 0.00142048 0.00481508)
        Viscous  : (3.13956e-07 -6.55143e-06 0.00010881)
    writing force and moment files.

Time = 33

smoothSolver:  Solving for Ux, Initial residual = 8.91126e-05, Final residual = 7.8858e-06, No Iterations 1
smoothSolver:  Solving for Uy, Initial residual = 0.00253895, Final residual = 0.000218119, No Iterations 1
smoothSolver:  Solving for Uz, Initial residual = 0.00844388, Final residual = 0.00074302, No Iterations 1
GAMG:  Solving for p, Initial residual = 0.0105989, Final residual = 0.000562373, No Iterations 2
time step continuity errors : sum local = 5.68799e-06, global = 4.57509e-07, cumulative = -1.38116e-06
smoothSolver:  Solving for omega, Initial residual = 2.69439e-05, Final residual = 1.40897e-06, No Iterations 1
smoothSolver:  Solving for k, Initial residual = 0.0030753, Final residual = 0.000146141, No Iterations 1
ExecutionTime = 19.92 s  ClockTime = 20 s

forces forcesFish write:
    Sum of forces
        Total    : (0.23756 0.015764 -0.00381243)
        Pressure : (0.0934823 0.0153713 -0.00382032)
        Viscous  : (0.144077 0.00039274 7.88052e-06)
    Sum of moments
        Total    : (4.77651e-05 0.00161735 0.00465801)
        Pressure : (4.74487e-05 0.00162373 0.00454658)
        Viscous  : (3.16394e-07 -6.38375e-06 0.000111426)
    writing force and moment files.

Time = 34

smoothSolver:  Solving for Ux, Initial residual = 8.56482e-05, Final residual = 7.49887e-06, No Iterations 1
smoothSolver:  Solving for Uy, Initial residual = 0.00245699, Final residual = 0.000201339, No Iterations 1
smoothSolver:  Solving for Uz, Initial residual = 0.00787557, Final residual = 0.000684305, No Iterations 1
GAMG:  Solving for p, Initial residual = 0.00986879, Final residual = 0.000518802, No Iterations 2
time step continuity errors : sum local = 5.25723e-06, global = 7.94595e-07, cumulative = -5.86562e-07
smoothSolver:  Solving for omega, Initial residual = 2.30874e-05, Final residual = 1.23771e-06, No Iterations 1
smoothSolver:  Solving for k, Initial residual = 0.00275234, Final residual = 0.000131085, No Iterations 1
ExecutionTime = 20.46 s  ClockTime = 21 s

forces forcesFish write:
    Sum of forces
        Total    : (0.236063 0.0150148 -0.00446912)
        Pressure : (0.0924795 0.0146124 -0.00447674)
        Viscous  : (0.143583 0.000402398 7.62456e-06)
    Sum of moments
        Total    : (4.9893e-05 0.00180654 0.00443655)
        Pressure : (4.95737e-05 0.00181273 0.00432252)
        Viscous  : (3.19287e-07 -6.18588e-06 0.000114029)
    writing force and moment files.

Time = 35

smoothSolver:  Solving for Ux, Initial residual = 8.14416e-05, Final residual = 7.09106e-06, No Iterations 1
smoothSolver:  Solving for Uy, Initial residual = 0.00237907, Final residual = 0.000191336, No Iterations 1
smoothSolver:  Solving for Uz, Initial residual = 0.00730222, Final residual = 0.000628741, No Iterations 1
GAMG:  Solving for p, Initial residual = 0.00918454, Final residual = 0.000472772, No Iterations 2
time step continuity errors : sum local = 4.80063e-06, global = 1.01285e-06, cumulative = 4.26291e-07
smoothSolver:  Solving for omega, Initial residual = 1.9691e-05, Final residual = 1.0874e-06, No Iterations 1
smoothSolver:  Solving for k, Initial residual = 0.002453, Final residual = 0.000117232, No Iterations 1
ExecutionTime = 20.99 s  ClockTime = 21 s

forces forcesFish write:
    Sum of forces
        Total    : (0.234909 0.0144887 -0.00504156)
        Pressure : (0.0918006 0.0140771 -0.00504861)
        Viscous  : (0.143108 0.000411607 7.04769e-06)
    Sum of moments
        Total    : (5.25721e-05 0.00196585 0.00427033)
        Pressure : (5.22438e-05 0.00197172 0.0041537)
        Viscous  : (3.28339e-07 -5.86799e-06 0.000116639)
    writing force and moment files.

Time = 36

smoothSolver:  Solving for Ux, Initial residual = 7.52739e-05, Final residual = 6.60204e-06, No Iterations 1
smoothSolver:  Solving for Uy, Initial residual = 0.00230363, Final residual = 0.000185424, No Iterations 1
smoothSolver:  Solving for Uz, Initial residual = 0.00672064, Final residual = 0.000577142, No Iterations 1
GAMG:  Solving for p, Initial residual = 0.0085671, Final residual = 0.000427892, No Iterations 2
time step continuity errors : sum local = 4.35201e-06, global = 1.10097e-06, cumulative = 1.52726e-06
smoothSolver:  Solving for omega, Initial residual = 1.67162e-05, Final residual = 9.55787e-07, No Iterations 1
smoothSolver:  Solving for k, Initial residual = 0.00217604, Final residual = 0.000104522, No Iterations 1
ExecutionTime = 21.52 s  ClockTime = 22 s

forces forcesFish write:
    Sum of forces
        Total    : (0.234022 0.0141658 -0.0054873)
        Pressure : (0.0913708 0.0137453 -0.00549391)
        Viscous  : (0.142652 0.000420453 6.61116e-06)
    Sum of moments
        Total    : (5.54342e-05 0.00208561 0.00415926)
        Pressure : (5.50998e-05 0.00209123 0.00403999)
        Viscous  : (3.34376e-07 -5.6259e-06 0.000119268)
    writing force and moment files.

Time = 37

smoothSolver:  Solving for Ux, Initial residual = 6.71517e-05, Final residual = 6.03458e-06, No Iterations 1
smoothSolver:  Solving for Uy, Initial residual = 0.0022431, Final residual = 0.000181715, No Iterations 1
smoothSolver:  Solving for Uz, Initial residual = 0.00615931, Final residual = 0.00052069, No Iterations 1
GAMG:  Solving for p, Initial residual = 0.00803145, Final residual = 0.0003948, No Iterations 2
time step continuity errors : sum local = 4.01898e-06, global = 1.09059e-06, cumulative = 2.61785e-06
smoothSolver:  Solving for omega, Initial residual = 1.41265e-05, Final residual = 8.4087e-07, No Iterations 1
smoothSolver:  Solving for k, Initial residual = 0.00191949, Final residual = 9.28581e-05, No Iterations 1
ExecutionTime = 22.06 s  ClockTime = 22 s

forces forcesFish write:
    Sum of forces
        Total    : (0.233322 0.0140068 -0.00578202)
        Pressure : (0.0911095 0.0135778 -0.00578808)
        Viscous  : (0.142212 0.000429004 6.05778e-06)
    Sum of moments
        Total    : (5.81306e-05 0.00216086 0.00409631)
        Pressure : (5.77868e-05 0.0021662 0.00397439)
        Viscous  : (3.43782e-07 -5.34577e-06 0.000121922)
    writing force and moment files.

Time = 38

smoothSolver:  Solving for Ux, Initial residual = 5.88685e-05, Final residual = 5.44123e-06, No Iterations 1
smoothSolver:  Solving for Uy, Initial residual = 0.00220658, Final residual = 0.000179087, No Iterations 1
smoothSolver:  Solving for Uz, Initial residual = 0.00564149, Final residual = 0.000459118, No Iterations 1
GAMG:  Solving for p, Initial residual = 0.00749398, Final residual = 0.000370788, No Iterations 2
time step continuity errors : sum local = 3.77455e-06, global = 1.02565e-06, cumulative = 3.64351e-06
smoothSolver:  Solving for omega, Initial residual = 1.18876e-05, Final residual = 7.40748e-07, No Iterations 1
smoothSolver:  Solving for k, Initial residual = 0.00168389, Final residual = 8.22529e-05, No Iterations 1
ExecutionTime = 22.61 s  ClockTime = 23 s

forces forcesFish write:
    Sum of forces
        Total    : (0.232729 0.0139621 -0.0059215)
        Pressure : (0.0909393 0.0135249 -0.00592705)
        Viscous  : (0.141789 0.000437204 5.55559e-06)
    Sum of moments
        Total    : (6.03717e-05 0.00219212 0.00407001)
        Pressure : (6.00187e-05 0.00219722 0.00394546)
        Viscous  : (3.52965e-07 -5.10213e-06 0.000124547)
    writing force and moment files.

Time = 39

smoothSolver:  Solving for Ux, Initial residual = 5.28469e-05, Final residual = 4.95105e-06, No Iterations 1
smoothSolver:  Solving for Uy, Initial residual = 0.00219778, Final residual = 0.000177085, No Iterations 1
smoothSolver:  Solving for Uz, Initial residual = 0.0051951, Final residual = 0.000400809, No Iterations 1
GAMG:  Solving for p, Initial residual = 0.00694072, Final residual = 0.000343218, No Iterations 2
time step continuity errors : sum local = 3.4909e-06, global = 9.2441e-07, cumulative = 4.56792e-06
smoothSolver:  Solving for omega, Initial residual = 9.96531e-06, Final residual = 6.53946e-07, No Iterations 1
smoothSolver:  Solving for k, Initial residual = 0.00146878, Final residual = 7.26674e-05, No Iterations 1
ExecutionTime = 23.17 s  ClockTime = 23 s

forces forcesFish write:
    Sum of forces
        Total    : (0.232189 0.013977 -0.00592257)
        Pressure : (0.0908065 0.0135322 -0.00592735)
        Viscous  : (0.141382 0.000444763 4.78127e-06)
    Sum of moments
        Total    : (6.1942e-05 0.00218525 0.00406628)
        Pressure : (6.15745e-05 0.00219002 0.00393927)
        Viscous  : (3.67592e-07 -4.76904e-06 0.000127012)
    writing force and moment files.

Time = 40

smoothSolver:  Solving for Ux, Initial residual = 4.97897e-05, Final residual = 4.62552e-06, No Iterations 1
smoothSolver:  Solving for Uy, Initial residual = 0.00220094, Final residual = 0.000175392, No Iterations 1
smoothSolver:  Solving for Uz, Initial residual = 0.00476796, Final residual = 0.000347326, No Iterations 1
GAMG:  Solving for p, Initial residual = 0.00642607, Final residual = 0.000311748, No Iterations 2
time step continuity errors : sum local = 3.166e-06, global = 7.89524e-07, cumulative = 5.35744e-06
smoothSolver:  Solving for omega, Initial residual = 8.3288e-06, Final residual = 5.78854e-07, No Iterations 1
smoothSolver:  Solving for k, Initial residual = 0.00127348, Final residual = 6.40453e-05, No Iterations 1
ExecutionTime = 23.73 s  ClockTime = 24 s

forces forcesFish write:
    Sum of forces
        Total    : (0.231663 0.0140039 -0.00582046)
        Pressure : (0.0906731 0.0135521 -0.00582481)
        Viscous  : (0.14099 0.000451813 4.34457e-06)
    Sum of moments
        Total    : (6.27644e-05 0.00215071 0.00407188)
        Pressure : (6.23885e-05 0.00215529 0.00394254)
        Viscous  : (3.75988e-07 -4.5846e-06 0.000129339)
    writing force and moment files.

Time = 41

smoothSolver:  Solving for Ux, Initial residual = 4.8369e-05, Final residual = 4.39854e-06, No Iterations 1
smoothSolver:  Solving for Uy, Initial residual = 0.00221145, Final residual = 0.000174115, No Iterations 1
smoothSolver:  Solving for Uz, Initial residual = 0.00433687, Final residual = 0.000301129, No Iterations 1
GAMG:  Solving for p, Initial residual = 0.00595753, Final residual = 0.000280031, No Iterations 2
time step continuity errors : sum local = 2.83867e-06, global = 6.20268e-07, cumulative = 5.97771e-06
smoothSolver:  Solving for omega, Initial residual = 6.94539e-06, Final residual = 5.13904e-07, No Iterations 1
smoothSolver:  Solving for k, Initial residual = 0.00109724, Final residual = 5.63246e-05, No Iterations 1
ExecutionTime = 24.29 s  ClockTime = 24 s

forces forcesFish write:
    Sum of forces
        Total    : (0.231138 0.0140086 -0.00565725)
        Pressure : (0.090525 0.0135504 -0.00566172)
        Viscous  : (0.140613 0.000458131 4.47402e-06)
    Sum of moments
        Total    : (6.28764e-05 0.00210027 0.00407617)
        Pressure : (6.2503e-05 0.00210492 0.00394477)
        Viscous  : (3.73416e-07 -4.6434e-06 0.000131406)
    writing force and moment files.

Time = 42

smoothSolver:  Solving for Ux, Initial residual = 4.76419e-05, Final residual = 4.23353e-06, No Iterations 1
smoothSolver:  Solving for Uy, Initial residual = 0.0022421, Final residual = 0.00017412, No Iterations 1
smoothSolver:  Solving for Uz, Initial residual = 0.00393307, Final residual = 0.000263699, No Iterations 1
GAMG:  Solving for p, Initial residual = 0.00551168, Final residual = 0.000252706, No Iterations 2
time step continuity errors : sum local = 2.55718e-06, global = 4.28799e-07, cumulative = 6.40651e-06
smoothSolver:  Solving for omega, Initial residual = 5.78651e-06, Final residual = 4.57899e-07, No Iterations 1
smoothSolver:  Solving for k, Initial residual = 0.000939894, Final residual = 4.94731e-05, No Iterations 1
ExecutionTime = 24.83 s  ClockTime = 25 s

forces forcesFish write:
    Sum of forces
        Total    : (0.230619 0.0139719 -0.00547373)
        Pressure : (0.0903674 0.0135079 -0.00547684)
        Viscous  : (0.140251 0.000464075 3.10794e-06)
    Sum of moments
        Total    : (6.24383e-05 0.00204532 0.00407234)
        Pressure : (6.20426e-05 0.00204943 0.00393896)
        Viscous  : (3.95727e-07 -4.11368e-06 0.000133375)
    writing force and moment files.

Time = 43

smoothSolver:  Solving for Ux, Initial residual = 4.68536e-05, Final residual = 4.08691e-06, No Iterations 1
smoothSolver:  Solving for Uy, Initial residual = 0.00228808, Final residual = 0.00017497, No Iterations 1
smoothSolver:  Solving for Uz, Initial residual = 0.00359483, Final residual = 0.00023731, No Iterations 1
GAMG:  Solving for p, Initial residual = 0.00509337, Final residual = 0.000231482, No Iterations 2
time step continuity errors : sum local = 2.33907e-06, global = 2.30791e-07, cumulative = 6.6373e-06
smoothSolver:  Solving for omega, Initial residual = 4.82132e-06, Final residual = 4.09612e-07, No Iterations 1
smoothSolver:  Solving for k, Initial residual = 0.00080061, Final residual = 4.34276e-05, No Iterations 1
ExecutionTime = 25.38 s  ClockTime = 25 s

forces forcesFish write:
    Sum of forces
        Total    : (0.230101 0.0138892 -0.00529813)
        Pressure : (0.0901984 0.0134204 -0.00530152)
        Viscous  : (0.139903 0.000468812 3.39316e-06)
    Sum of moments
        Total    : (6.15842e-05 0.00199311 0.00405699)
        Pressure : (6.11943e-05 0.00199736 0.00392213)
        Viscous  : (3.89889e-07 -4.24755e-06 0.000134858)
    writing force and moment files.

Time = 44

smoothSolver:  Solving for Ux, Initial residual = 4.5087e-05, Final residual = 3.91242e-06, No Iterations 1
smoothSolver:  Solving for Uy, Initial residual = 0.00231456, Final residual = 0.000175589, No Iterations 1
smoothSolver:  Solving for Uz, Initial residual = 0.00334974, Final residual = 0.000223438, No Iterations 1
GAMG:  Solving for p, Initial residual = 0.00471959, Final residual = 0.000218233, No Iterations 2
time step continuity errors : sum local = 2.20307e-06, global = 6.03089e-08, cumulative = 6.69761e-06
smoothSolver:  Solving for omega, Initial residual = 4.02407e-06, Final residual = 3.67913e-07, No Iterations 1
smoothSolver:  Solving for k, Initial residual = 0.000678382, Final residual = 3.81207e-05, No Iterations 1
ExecutionTime = 25.95 s  ClockTime = 26 s

forces forcesFish write:
    Sum of forces
        Total    : (0.229603 0.0137642 -0.00515016)
        Pressure : (0.0900339 0.0132908 -0.00515326)
        Viscous  : (0.13957 0.000473482 3.10025e-06)
    Sum of moments
        Total    : (6.04998e-05 0.00194899 0.00402978)
        Pressure : (6.01083e-05 0.00195314 0.00389344)
        Viscous  : (3.91528e-07 -4.15104e-06 0.000136331)
    writing force and moment files.

Time = 45

smoothSolver:  Solving for Ux, Initial residual = 4.23131e-05, Final residual = 3.70269e-06, No Iterations 1
smoothSolver:  Solving for Uy, Initial residual = 0.00232604, Final residual = 0.000176115, No Iterations 1
smoothSolver:  Solving for Uz, Initial residual = 0.00315269, Final residual = 0.000212263, No Iterations 1
GAMG:  Solving for p, Initial residual = 0.00438799, Final residual = 0.000214638, No Iterations 2
time step continuity errors : sum local = 2.16577e-06, global = -5.21183e-08, cumulative = 6.64549e-06
smoothSolver:  Solving for omega, Initial residual = 3.37136e-06, Final residual = 3.31899e-07, No Iterations 1
smoothSolver:  Solving for k, Initial residual = 0.0005719, Final residual = 3.34727e-05, No Iterations 1
ExecutionTime = 26.47 s  ClockTime = 27 s

forces forcesFish write:
    Sum of forces
        Total    : (0.229138 0.0136046 -0.00503755)
        Pressure : (0.0898875 0.0131274 -0.0050399)
        Viscous  : (0.13925 0.000477182 2.34565e-06)
    Sum of moments
        Total    : (5.93072e-05 0.0019147 0.00399147)
        Pressure : (5.89039e-05 0.00191856 0.00385405)
        Viscous  : (4.03378e-07 -3.86417e-06 0.000137417)
    writing force and moment files.

Time = 46

smoothSolver:  Solving for Ux, Initial residual = 3.86729e-05, Final residual = 3.45902e-06, No Iterations 1
smoothSolver:  Solving for Uy, Initial residual = 0.00232273, Final residual = 0.000175513, No Iterations 1
smoothSolver:  Solving for Uz, Initial residual = 0.00297317, Final residual = 0.000200762, No Iterations 1
GAMG:  Solving for p, Initial residual = 0.0041026, Final residual = 0.00020692, No Iterations 2
time step continuity errors : sum local = 2.0878e-06, global = -1.14076e-07, cumulative = 6.53141e-06
smoothSolver:  Solving for omega, Initial residual = 2.83885e-06, Final residual = 5.66659e-08, No Iterations 2
smoothSolver:  Solving for k, Initial residual = 0.000480095, Final residual = 2.94247e-05, No Iterations 1
ExecutionTime = 27.04 s  ClockTime = 27 s

forces forcesFish write:
    Sum of forces
        Total    : (0.228708 0.0134246 -0.00496103)
        Pressure : (0.0897627 0.012944 -0.00496294)
        Viscous  : (0.138945 0.000480629 1.90176e-06)
    Sum of moments
        Total    : (5.81058e-05 0.0018901 0.00394533)
        Pressure : (5.76975e-05 0.0018938 0.00380693)
        Viscous  : (4.08328e-07 -3.69735e-06 0.000138397)
    writing force and moment files.

Time = 47

smoothSolver:  Solving for Ux, Initial residual = 3.45229e-05, Final residual = 3.19466e-06, No Iterations 1
smoothSolver:  Solving for Uy, Initial residual = 0.00230918, Final residual = 0.000173861, No Iterations 1
smoothSolver:  Solving for Uz, Initial residual = 0.00280793, Final residual = 0.000188933, No Iterations 1
GAMG:  Solving for p, Initial residual = 0.00383693, Final residual = 0.000192394, No Iterations 2
time step continuity errors : sum local = 1.94179e-06, global = -1.47736e-07, cumulative = 6.38368e-06
smoothSolver:  Solving for omega, Initial residual = 2.35204e-06, Final residual = 5.10985e-08, No Iterations 2
smoothSolver:  Solving for k, Initial residual = 0.000401736, Final residual = 2.59165e-05, No Iterations 1
ExecutionTime = 27.6 s  ClockTime = 28 s

forces forcesFish write:
    Sum of forces
        Total    : (0.228309 0.0132411 -0.0049147)
        Pressure : (0.0896557 0.012758 -0.00491727)
        Viscous  : (0.138653 0.000483088 2.57005e-06)
    Sum of moments
        Total    : (5.6961e-05 0.00187316 0.00389557)
        Pressure : (5.65656e-05 0.00187713 0.0037566)
        Viscous  : (3.95419e-07 -3.96526e-06 0.000138973)
    writing force and moment files.

Time = 48

smoothSolver:  Solving for Ux, Initial residual = 3.0544e-05, Final residual = 2.94234e-06, No Iterations 1
smoothSolver:  Solving for Uy, Initial residual = 0.00227929, Final residual = 0.000171093, No Iterations 1
smoothSolver:  Solving for Uz, Initial residual = 0.00264091, Final residual = 0.00017626, No Iterations 1
GAMG:  Solving for p, Initial residual = 0.00359927, Final residual = 0.000176707, No Iterations 2
time step continuity errors : sum local = 1.78424e-06, global = -1.80062e-07, cumulative = 6.20362e-06
smoothSolver:  Solving for omega, Initial residual = 1.96886e-06, Final residual = 4.58487e-08, No Iterations 2
smoothSolver:  Solving for k, Initial residual = 0.000335402, Final residual = 2.28815e-05, No Iterations 1
ExecutionTime = 28.18 s  ClockTime = 28 s

forces forcesFish write:
    Sum of forces
        Total    : (0.227944 0.0130697 -0.00489007)
        Pressure : (0.089569 0.0125839 -0.00489127)
        Viscous  : (0.138375 0.000485778 1.20397e-06)
    Sum of moments
        Total    : (5.59505e-05 0.00186157 0.00384675)
        Pressure : (5.55337e-05 0.00186499 0.00370707)
        Viscous  : (4.16786e-07 -3.41782e-06 0.000139681)
    writing force and moment files.

Time = 49

smoothSolver:  Solving for Ux, Initial residual = 2.8007e-05, Final residual = 2.74997e-06, No Iterations 1
smoothSolver:  Solving for Uy, Initial residual = 0.00224816, Final residual = 0.000168567, No Iterations 1
smoothSolver:  Solving for Uz, Initial residual = 0.00244903, Final residual = 0.000161752, No Iterations 1
GAMG:  Solving for p, Initial residual = 0.00337041, Final residual = 0.00016154, No Iterations 2
time step continuity errors : sum local = 1.6318e-06, global = -2.0633e-07, cumulative = 5.99729e-06
smoothSolver:  Solving for omega, Initial residual = 1.6638e-06, Final residual = 4.1304e-08, No Iterations 2
smoothSolver:  Solving for k, Initial residual = 0.000279698, Final residual = 2.02592e-05, No Iterations 1
ExecutionTime = 28.77 s  ClockTime = 29 s

forces forcesFish write:
    Sum of forces
        Total    : (0.227587 0.0129209 -0.00487191)
        Pressure : (0.0894788 0.0124337 -0.00487393)
        Viscous  : (0.138108 0.000487235 2.02001e-06)
    Sum of moments
        Total    : (5.50331e-05 0.00185066 0.00380189)
        Pressure : (5.46305e-05 0.00185439 0.00366201)
        Viscous  : (4.0252e-07 -3.73549e-06 0.000139886)
    writing force and moment files.

Time = 50

smoothSolver:  Solving for Ux, Initial residual = 2.69084e-05, Final residual = 2.63408e-06, No Iterations 1
smoothSolver:  Solving for Uy, Initial residual = 0.00221484, Final residual = 0.000166416, No Iterations 1
smoothSolver:  Solving for Uz, Initial residual = 0.00227549, Final residual = 0.000149395, No Iterations 1
GAMG:  Solving for p, Initial residual = 0.00315046, Final residual = 0.000148508, No Iterations 2
time step continuity errors : sum local = 1.50053e-06, global = -2.18156e-07, cumulative = 5.77913e-06
smoothSolver:  Solving for omega, Initial residual = 1.42269e-06, Final residual = 3.74361e-08, No Iterations 2
smoothSolver:  Solving for k, Initial residual = 0.000233189, Final residual = 1.79884e-05, No Iterations 1
ExecutionTime = 29.33 s  ClockTime = 29 s

forces forcesFish write:
    Sum of forces
        Total    : (0.227245 0.0127974 -0.00485071)
        Pressure : (0.0893899 0.0123083 -0.00485192)
        Viscous  : (0.137856 0.000489078 1.20754e-06)
    Sum of moments
        Total    : (5.42152e-05 0.00183808 0.00376249)
        Pressure : (5.38005e-05 0.00184148 0.0036222)
        Viscous  : (4.14734e-07 -3.40226e-06 0.000140286)
    writing force and moment files.

Time = 51

smoothSolver:  Solving for Ux, Initial residual = 2.64423e-05, Final residual = 2.55548e-06, No Iterations 1
smoothSolver:  Solving for Uy, Initial residual = 0.00220961, Final residual = 0.000166406, No Iterations 1
smoothSolver:  Solving for Uz, Initial residual = 0.00210163, Final residual = 0.000137412, No Iterations 1
GAMG:  Solving for p, Initial residual = 0.00294411, Final residual = 0.00013962, No Iterations 2
time step continuity errors : sum local = 1.41078e-06, global = -2.08383e-07, cumulative = 5.57075e-06
smoothSolver:  Solving for omega, Initial residual = 1.23044e-06, Final residual = 3.41191e-08, No Iterations 2
smoothSolver:  Solving for k, Initial residual = 0.000194685, Final residual = 1.60257e-05, No Iterations 1
ExecutionTime = 29.91 s  ClockTime = 30 s

forces forcesFish write:
    Sum of forces
        Total    : (0.226901 0.0126967 -0.00481776)
        Pressure : (0.0892872 0.012207 -0.00481947)
        Viscous  : (0.137613 0.000489687 1.71759e-06)
    Sum of moments
        Total    : (5.34482e-05 0.00182141 0.00372817)
        Pressure : (5.30404e-05 0.001825 0.00358798)
        Viscous  : (4.07822e-07 -3.59161e-06 0.000140189)
    writing force and moment files.

Time = 52

smoothSolver:  Solving for Ux, Initial residual = 2.58713e-05, Final residual = 2.47819e-06, No Iterations 1
smoothSolver:  Solving for Uy, Initial residual = 0.0021935, Final residual = 0.000166018, No Iterations 1
smoothSolver:  Solving for Uz, Initial residual = 0.00196788, Final residual = 0.000128, No Iterations 1
GAMG:  Solving for p, Initial residual = 0.00275086, Final residual = 0.000128938, No Iterations 2
time step continuity errors : sum local = 1.30254e-06, global = -2.02844e-07, cumulative = 5.3679e-06
smoothSolver:  Solving for omega, Initial residual = 1.07803e-06, Final residual = 3.13143e-08, No Iterations 2
smoothSolver:  Solving for k, Initial residual = 0.000162991, Final residual = 1.43264e-05, No Iterations 1
ExecutionTime = 30.49 s  ClockTime = 31 s

forces forcesFish write:
    Sum of forces
        Total    : (0.226567 0.0126141 -0.00476777)
        Pressure : (0.089182 0.0121231 -0.00476866)
        Viscous  : (0.137385 0.000491001 8.91927e-07)
    Sum of moments
        Total    : (5.26759e-05 0.00179925 0.0036984)
        Pressure : (5.22554e-05 0.0018025 0.00355797)
        Viscous  : (4.20483e-07 -3.24735e-06 0.000140421)
    writing force and moment files.

Time = 53

smoothSolver:  Solving for Ux, Initial residual = 2.49492e-05, Final residual = 2.38778e-06, No Iterations 1
smoothSolver:  Solving for Uy, Initial residual = 0.00218789, Final residual = 0.000166284, No Iterations 1
smoothSolver:  Solving for Uz, Initial residual = 0.00184221, Final residual = 0.000118791, No Iterations 1
GAMG:  Solving for p, Initial residual = 0.00257693, Final residual = 0.000120515, No Iterations 2
time step continuity errors : sum local = 1.21692e-06, global = -2.00786e-07, cumulative = 5.16712e-06
smoothSolver:  Solving for omega, Initial residual = 9.54698e-07, Final residual = 2.88996e-08, No Iterations 2
smoothSolver:  Solving for k, Initial residual = 0.000137027, Final residual = 1.28514e-05, No Iterations 1
ExecutionTime = 31.03 s  ClockTime = 31 s

forces forcesFish write:
    Sum of forces
        Total    : (0.226224 0.0125449 -0.00469869)
        Pressure : (0.0890595 0.0120537 -0.0047002)
        Viscous  : (0.137165 0.000491129 1.51133e-06)
    Sum of moments
        Total    : (5.18594e-05 0.00177106 0.0036719)
        Pressure : (5.14482e-05 0.00177454 0.00353173)
        Viscous  : (4.11274e-07 -3.48135e-06 0.000140168)
    writing force and moment files.

Time = 54

smoothSolver:  Solving for Ux, Initial residual = 2.36238e-05, Final residual = 2.27839e-06, No Iterations 1
smoothSolver:  Solving for Uy, Initial residual = 0.00218107, Final residual = 0.00016582, No Iterations 1
smoothSolver:  Solving for Uz, Initial residual = 0.00174575, Final residual = 0.000111454, No Iterations 1
GAMG:  Solving for p, Initial residual = 0.00241546, Final residual = 0.000114853, No Iterations 2
time step continuity errors : sum local = 1.15888e-06, global = -2.05655e-07, cumulative = 4.96146e-06
smoothSolver:  Solving for omega, Initial residual = 8.57655e-07, Final residual = 2.68069e-08, No Iterations 2
smoothSolver:  Solving for k, Initial residual = 0.000115818, Final residual = 1.15663e-05, No Iterations 1
ExecutionTime = 31.57 s  ClockTime = 32 s

forces forcesFish write:
    Sum of forces
        Total    : (0.225894 0.0124839 -0.00461247)
        Pressure : (0.0889356 0.0119922 -0.00461316)
        Viscous  : (0.136958 0.000491731 6.90569e-07)
    Sum of moments
        Total    : (5.09964e-05 0.0017377 0.00364779)
        Pressure : (5.0572e-05 0.00174084 0.00350764)
        Viscous  : (4.24326e-07 -3.14161e-06 0.000140153)
    writing force and moment files.

Time = 55

smoothSolver:  Solving for Ux, Initial residual = 2.18001e-05, Final residual = 2.14413e-06, No Iterations 1
smoothSolver:  Solving for Uy, Initial residual = 0.00217898, Final residual = 0.000165301, No Iterations 1
smoothSolver:  Solving for Uz, Initial residual = 0.00165137, Final residual = 0.000104539, No Iterations 1
GAMG:  Solving for p, Initial residual = 0.00226111, Final residual = 0.000105012, No Iterations 2
time step continuity errors : sum local = 1.05851e-06, global = -2.02207e-07, cumulative = 4.75925e-06
smoothSolver:  Solving for omega, Initial residual = 7.76351e-07, Final residual = 2.49431e-08, No Iterations 2
smoothSolver:  Solving for k, Initial residual = 9.85173e-05, Final residual = 2.07157e-06, No Iterations 2
ExecutionTime = 32.13 s  ClockTime = 32 s

forces forcesFish write:
    Sum of forces
        Total    : (0.225536 0.0124288 -0.00451189)
        Pressure : (0.0888016 0.0119378 -0.00451293)
        Viscous  : (0.136735 0.000491034 1.03959e-06)
    Sum of moments
        Total    : (5.00645e-05 0.00170002 0.0036254)
        Pressure : (4.96441e-05 0.00170329 0.00348583)
        Viscous  : (4.20472e-07 -3.27085e-06 0.000139576)
    writing force and moment files.

Time = 56

smoothSolver:  Solving for Ux, Initial residual = 1.98344e-05, Final residual = 4.19688e-07, No Iterations 2
smoothSolver:  Solving for Uy, Initial residual = 0.00210564, Final residual = 0.000159153, No Iterations 1
smoothSolver:  Solving for Uz, Initial residual = 0.00156711, Final residual = 9.92366e-05, No Iterations 1
GAMG:  Solving for p, Initial residual = 0.00212649, Final residual = 9.78114e-05, No Iterations 2
time step continuity errors : sum local = 9.84677e-07, global = -1.8145e-07, cumulative = 4.5778e-06
smoothSolver:  Solving for omega, Initial residual = 7.33568e-07, Final residual = 2.39966e-08, No Iterations 2
smoothSolver:  Solving for k, Initial residual = 8.379e-05, Final residual = 1.88524e-06, No Iterations 2
ExecutionTime = 32.68 s  ClockTime = 33 s

forces forcesFish write:
    Sum of forces
        Total    : (0.225137 0.0123629 -0.00440171)
        Pressure : (0.088625 0.0118721 -0.00440233)
        Viscous  : (0.136512 0.000490844 6.1396e-07)
    Sum of moments
        Total    : (4.90482e-05 0.00165943 0.00359859)
        Pressure : (4.86217e-05 0.00166252 0.00345949)
        Viscous  : (4.26456e-07 -3.09127e-06 0.000139102)
    writing force and moment files.

Time = 57

smoothSolver:  Solving for Ux, Initial residual = 1.81185e-05, Final residual = 3.94524e-07, No Iterations 2
smoothSolver:  Solving for Uy, Initial residual = 0.00194949, Final residual = 0.00014842, No Iterations 1
smoothSolver:  Solving for Uz, Initial residual = 0.00147793, Final residual = 9.5147e-05, No Iterations 1
GAMG:  Solving for p, Initial residual = 0.00199779, Final residual = 9.31452e-05, No Iterations 2
time step continuity errors : sum local = 9.36265e-07, global = -1.551e-07, cumulative = 4.4227e-06
smoothSolver:  Solving for omega, Initial residual = 6.90136e-07, Final residual = 2.29464e-08, No Iterations 2
smoothSolver:  Solving for k, Initial residual = 7.17572e-05, Final residual = 1.69702e-06, No Iterations 2
ExecutionTime = 33.23 s  ClockTime = 33 s

forces forcesFish write:
    Sum of forces
        Total    : (0.224716 0.0122943 -0.00429014)
        Pressure : (0.0884148 0.0118044 -0.00429071)
        Viscous  : (0.136302 0.00048983 5.71018e-07)
    Sum of moments
        Total    : (4.79811e-05 0.00161861 0.00357048)
        Pressure : (4.75527e-05 0.00162167 0.00343219)
        Viscous  : (4.28454e-07 -3.06644e-06 0.00013829)
    writing force and moment files.

Time = 58

smoothSolver:  Solving for Ux, Initial residual = 1.7323e-05, Final residual = 3.73366e-07, No Iterations 2
smoothSolver:  Solving for Uy, Initial residual = 0.00177627, Final residual = 0.000137281, No Iterations 1
smoothSolver:  Solving for Uz, Initial residual = 0.00138804, Final residual = 9.2063e-05, No Iterations 1
GAMG:  Solving for p, Initial residual = 0.0018785, Final residual = 9.13648e-05, No Iterations 2
time step continuity errors : sum local = 9.16992e-07, global = -1.33288e-07, cumulative = 4.28942e-06
smoothSolver:  Solving for omega, Initial residual = 6.5068e-07, Final residual = 2.18558e-08, No Iterations 2
smoothSolver:  Solving for k, Initial residual = 6.18964e-05, Final residual = 1.52317e-06, No Iterations 2
ExecutionTime = 33.8 s  ClockTime = 34 s

forces forcesFish write:
    Sum of forces
        Total    : (0.224298 0.012229 -0.00418361)
        Pressure : (0.0881937 0.0117401 -0.00418419)
        Viscous  : (0.136104 0.000488963 5.73829e-07)
    Sum of moments
        Total    : (4.69092e-05 0.00157972 0.00354359)
        Pressure : (4.64818e-05 0.00158278 0.00340604)
        Viscous  : (4.27369e-07 -3.05929e-06 0.000137555)
    writing force and moment files.

Time = 59

smoothSolver:  Solving for Ux, Initial residual = 1.70734e-05, Final residual = 3.54823e-07, No Iterations 2
smoothSolver:  Solving for Uy, Initial residual = 0.00160953, Final residual = 0.000126887, No Iterations 1
smoothSolver:  Solving for Uz, Initial residual = 0.00130068, Final residual = 8.93218e-05, No Iterations 1
GAMG:  Solving for p, Initial residual = 0.00176737, Final residual = 8.84742e-05, No Iterations 2
time step continuity errors : sum local = 8.86844e-07, global = -1.0526e-07, cumulative = 4.18416e-06
smoothSolver:  Solving for omega, Initial residual = 6.12133e-07, Final residual = 2.0767e-08, No Iterations 2
smoothSolver:  Solving for k, Initial residual = 5.37611e-05, Final residual = 1.36578e-06, No Iterations 2
ExecutionTime = 34.37 s  ClockTime = 34 s

forces forcesFish write:
    Sum of forces
        Total    : (0.223896 0.0121694 -0.00408186)
        Pressure : (0.0879766 0.0116819 -0.00408207)
        Viscous  : (0.135919 0.000487538 2.14247e-07)
    Sum of moments
        Total    : (4.58217e-05 0.00154252 0.00351875)
        Pressure : (4.53867e-05 0.00154543 0.00338215)
        Viscous  : (4.34937e-07 -2.90836e-06 0.000136599)
    writing force and moment files.

Time = 60

smoothSolver:  Solving for Ux, Initial residual = 1.70139e-05, Final residual = 1.65934e-06, No Iterations 1
smoothSolver:  Solving for Uy, Initial residual = 0.00147647, Final residual = 0.000118207, No Iterations 1
smoothSolver:  Solving for Uz, Initial residual = 0.00122127, Final residual = 8.6473e-05, No Iterations 1
GAMG:  Solving for p, Initial residual = 0.00165847, Final residual = 8.23427e-05, No Iterations 2
time step continuity errors : sum local = 8.24511e-07, global = -6.59108e-08, cumulative = 4.11825e-06
smoothSolver:  Solving for omega, Initial residual = 5.74026e-07, Final residual = 1.96349e-08, No Iterations 2
smoothSolver:  Solving for k, Initial residual = 4.70053e-05, Final residual = 1.2241e-06, No Iterations 2
ExecutionTime = 34.95 s  ClockTime = 35 s

forces forcesFish write:
    Sum of forces
        Total    : (0.223563 0.0121288 -0.00398782)
        Pressure : (0.0878073 0.0116425 -0.00398825)
        Viscous  : (0.135756 0.000486356 4.21762e-07)
    Sum of moments
        Total    : (4.4762e-05 0.00150809 0.00350146)
        Pressure : (4.43319e-05 0.00151107 0.00336561)
        Viscous  : (4.30137e-07 -2.98382e-06 0.000135847)
    writing force and moment files.

Time = 61

smoothSolver:  Solving for Ux, Initial residual = 1.69864e-05, Final residual = 1.6242e-06, No Iterations 1
smoothSolver:  Solving for Uy, Initial residual = 0.00135783, Final residual = 0.000109505, No Iterations 1
smoothSolver:  Solving for Uz, Initial residual = 0.00115573, Final residual = 8.31748e-05, No Iterations 1
GAMG:  Solving for p, Initial residual = 0.00156035, Final residual = 7.43142e-05, No Iterations 2
time step continuity errors : sum local = 7.43599e-07, global = -1.32069e-08, cumulative = 4.10504e-06
smoothSolver:  Solving for omega, Initial residual = 5.39739e-07, Final residual = 1.85342e-08, No Iterations 2
smoothSolver:  Solving for k, Initial residual = 4.1344e-05, Final residual = 1.09623e-06, No Iterations 2
ExecutionTime = 35.49 s  ClockTime = 36 s

forces forcesFish write:
    Sum of forces
        Total    : (0.223286 0.0121016 -0.00389867)
        Pressure : (0.0876828 0.011617 -0.00389888)
        Viscous  : (0.135603 0.000484647 2.11213e-07)
    Sum of moments
        Total    : (4.37038e-05 0.00147527 0.00348944)
        Pressure : (4.3269e-05 0.00147816 0.00335456)
        Viscous  : (4.34808e-07 -2.89208e-06 0.000134885)
    writing force and moment files.

Time = 62

smoothSolver:  Solving for Ux, Initial residual = 1.6788e-05, Final residual = 1.58004e-06, No Iterations 1
smoothSolver:  Solving for Uy, Initial residual = 0.00125014, Final residual = 0.000101278, No Iterations 1
smoothSolver:  Solving for Uz, Initial residual = 0.00109466, Final residual = 7.90424e-05, No Iterations 1
GAMG:  Solving for p, Initial residual = 0.00146841, Final residual = 6.67585e-05, No Iterations 2
time step continuity errors : sum local = 6.67717e-07, global = 5.10287e-08, cumulative = 4.15607e-06
smoothSolver:  Solving for omega, Initial residual = 5.09101e-07, Final residual = 1.74611e-08, No Iterations 2
smoothSolver:  Solving for k, Initial residual = 3.65579e-05, Final residual = 9.80829e-07, No Iterations 2
ExecutionTime = 36.05 s  ClockTime = 36 s

forces forcesFish write:
    Sum of forces
        Total    : (0.223056 0.0120835 -0.00381452)
        Pressure : (0.0875947 0.0116003 -0.00381448)
        Viscous  : (0.135461 0.000483268 -4.6044e-08)
    Sum of moments
        Total    : (4.26657e-05 0.00144409 0.00348094)
        Pressure : (4.22277e-05 0.00144687 0.00334688)
        Viscous  : (4.37954e-07 -2.7819e-06 0.000134059)
    writing force and moment files.

Time = 63

smoothSolver:  Solving for Ux, Initial residual = 1.63978e-05, Final residual = 1.52779e-06, No Iterations 1
smoothSolver:  Solving for Uy, Initial residual = 0.00115197, Final residual = 9.34173e-05, No Iterations 1
smoothSolver:  Solving for Uz, Initial residual = 0.0010404, Final residual = 7.47931e-05, No Iterations 1
GAMG:  Solving for p, Initial residual = 0.00138407, Final residual = 6.21097e-05, No Iterations 2
time step continuity errors : sum local = 6.21095e-07, global = 1.12607e-07, cumulative = 4.26868e-06
smoothSolver:  Solving for omega, Initial residual = 4.78802e-07, Final residual = 1.64127e-08, No Iterations 2
smoothSolver:  Solving for k, Initial residual = 3.24706e-05, Final residual = 8.7673e-07, No Iterations 2
ExecutionTime = 36.61 s  ClockTime = 37 s

forces forcesFish write:
    Sum of forces
        Total    : (0.222857 0.0120702 -0.0037345)
        Pressure : (0.0875299 0.0115892 -0.0037346)
        Viscous  : (0.135327 0.000481042 1.00982e-07)
    Sum of moments
        Total    : (4.16547e-05 0.00141419 0.00347401)
        Pressure : (4.12173e-05 0.00141702 0.00334113)
        Viscous  : (4.37425e-07 -2.83207e-06 0.000132884)
    writing force and moment files.

Time = 64

smoothSolver:  Solving for Ux, Initial residual = 1.56985e-05, Final residual = 1.46254e-06, No Iterations 1
smoothSolver:  Solving for Uy, Initial residual = 0.00106661, Final residual = 8.64627e-05, No Iterations 1
smoothSolver:  Solving for Uz, Initial residual = 0.000987513, Final residual = 7.03894e-05, No Iterations 1
GAMG:  Solving for p, Initial residual = 0.0013066, Final residual = 6.25049e-05, No Iterations 2
time step continuity errors : sum local = 6.25026e-07, global = 1.646e-07, cumulative = 4.43327e-06
smoothSolver:  Solving for omega, Initial residual = 4.48716e-07, Final residual = 1.53938e-08, No Iterations 2
smoothSolver:  Solving for k, Initial residual = 2.8939e-05, Final residual = 7.82947e-07, No Iterations 2
ExecutionTime = 37.16 s  ClockTime = 37 s

[...]
        Viscous  : (0.133604 0.000413932 6.7254e-07)
    Sum of moments
        Total    : (2.30416e-05 0.000848212 0.00390075)
        Pressure : (2.25711e-05 0.000851009 0.00380435)
        Viscous  : (4.7047e-07 -2.79762e-06 9.63974e-05)
    writing force and moment files.

Time = 164

smoothSolver:  Solving for Ux, Initial residual = 2.19964e-07, Final residual = 1.37624e-08, No Iterations 1
smoothSolver:  Solving for Uy, Initial residual = 1.93282e-05, Final residual = 1.45589e-06, No Iterations 1
smoothSolver:  Solving for Uz, Initial residual = 1.9373e-05, Final residual = 1.3709e-06, No Iterations 1
GAMG:  Solving for p, Initial residual = 2.10093e-05, Final residual = 1.43432e-06, No Iterations 2
time step continuity errors : sum local = 1.42783e-08, global = -7.24907e-09, cumulative = 4.80638e-06
smoothSolver:  Solving for omega, Initial residual = 7.36233e-09, Final residual = 7.36233e-09, No Iterations 0
smoothSolver:  Solving for k, Initial residual = 2.30907e-08, Final residual = 1.52072e-09, No Iterations 1
ExecutionTime = 92.78 s  ClockTime = 93 s

forces forcesFish write:
    Sum of forces
        Total    : (0.22055 0.0134129 -0.00224284)
        Pressure : (0.0869461 0.0129987 -0.00224531)
        Viscous  : (0.133604 0.000414144 2.47082e-06)
    Sum of moments
        Total    : (2.29793e-05 0.000846896 0.00390308)
        Pressure : (2.25401e-05 0.000850408 0.0038066)
        Viscous  : (4.39265e-07 -3.51248e-06 9.64785e-05)
    writing force and moment files.

Time = 165

smoothSolver:  Solving for Ux, Initial residual = 2.02786e-07, Final residual = 1.28513e-08, No Iterations 1
smoothSolver:  Solving for Uy, Initial residual = 1.83176e-05, Final residual = 1.37468e-06, No Iterations 1
smoothSolver:  Solving for Uz, Initial residual = 1.83741e-05, Final residual = 1.32672e-06, No Iterations 1
GAMG:  Solving for p, Initial residual = 2.03878e-05, Final residual = 1.65271e-06, No Iterations 2
time step continuity errors : sum local = 1.64524e-08, global = -8.85121e-09, cumulative = 4.79752e-06
smoothSolver:  Solving for omega, Initial residual = 8.62793e-09, Final residual = 8.62793e-09, No Iterations 0
smoothSolver:  Solving for k, Initial residual = 2.21991e-08, Final residual = 1.51191e-09, No Iterations 1
ExecutionTime = 93.32 s  ClockTime = 93 s

forces forcesFish write:
    Sum of forces
        Total    : (0.220554 0.0134185 -0.00224276)
        Pressure : (0.0869502 0.0130044 -0.00224349)
        Viscous  : (0.133604 0.00041413 7.35766e-07)
    Sum of moments
        Total    : (2.29738e-05 0.0008469 0.0039053)
        Pressure : (2.25044e-05 0.000849722 0.00380884)
        Viscous  : (4.69378e-07 -2.82197e-06 9.6466e-05)
    writing force and moment files.

Time = 166

smoothSolver:  Solving for Ux, Initial residual = 1.8101e-07, Final residual = 1.17784e-08, No Iterations 1
smoothSolver:  Solving for Uy, Initial residual = 1.75426e-05, Final residual = 1.31768e-06, No Iterations 1
smoothSolver:  Solving for Uz, Initial residual = 1.75841e-05, Final residual = 1.25258e-06, No Iterations 1
GAMG:  Solving for p, Initial residual = 1.98801e-05, Final residual = 1.84416e-06, No Iterations 2
time step continuity errors : sum local = 1.83582e-08, global = -9.97051e-09, cumulative = 4.78755e-06
smoothSolver:  Solving for omega, Initial residual = 9.10322e-09, Final residual = 9.10322e-09, No Iterations 0
smoothSolver:  Solving for k, Initial residual = 2.15354e-08, Final residual = 1.49776e-09, No Iterations 1
ExecutionTime = 93.87 s  ClockTime = 94 s

forces forcesFish write:
    Sum of forces
        Total    : (0.22056 0.0134238 -0.00223995)
        Pressure : (0.0869559 0.0130095 -0.00224239)
        Viscous  : (0.133604 0.000414277 2.4483e-06)
    Sum of moments
        Total    : (2.29215e-05 0.000845799 0.00390745)
        Pressure : (2.24818e-05 0.000849302 0.00381093)
        Viscous  : (4.39706e-07 -3.50263e-06 9.65219e-05)
    writing force and moment files.

Time = 167

smoothSolver:  Solving for Ux, Initial residual = 1.53119e-07, Final residual = 1.05347e-08, No Iterations 1
smoothSolver:  Solving for Uy, Initial residual = 1.66982e-05, Final residual = 1.25809e-06, No Iterations 1
smoothSolver:  Solving for Uz, Initial residual = 1.68657e-05, Final residual = 1.23871e-06, No Iterations 1
GAMG:  Solving for p, Initial residual = 1.94613e-05, Final residual = 1.52738e-06, No Iterations 3
time step continuity errors : sum local = 1.52047e-08, global = -5.82563e-09, cumulative = 4.78173e-06
smoothSolver:  Solving for omega, Initial residual = 9.64555e-09, Final residual = 9.64555e-09, No Iterations 0
smoothSolver:  Solving for k, Initial residual = 2.10558e-08, Final residual = 1.51315e-09, No Iterations 1
ExecutionTime = 94.43 s  ClockTime = 95 s

forces forcesFish write:
    Sum of forces
        Total    : (0.220564 0.0134291 -0.00224005)
        Pressure : (0.0869607 0.013015 -0.00224078)
        Viscous  : (0.133603 0.000414146 7.38029e-07)
    Sum of moments
        Total    : (2.29195e-05 0.000845874 0.00390956)
        Pressure : (2.245e-05 0.000848696 0.0038131)
        Viscous  : (4.69508e-07 -2.82215e-06 9.64608e-05)
    writing force and moment files.

Time = 168

smoothSolver:  Solving for Ux, Initial residual = 1.12163e-07, Final residual = 8.40887e-09, No Iterations 1
smoothSolver:  Solving for Uy, Initial residual = 1.61851e-05, Final residual = 1.22375e-06, No Iterations 1
smoothSolver:  Solving for Uz, Initial residual = 1.65378e-05, Final residual = 1.22135e-06, No Iterations 1
GAMG:  Solving for p, Initial residual = 1.86455e-05, Final residual = 1.85574e-06, No Iterations 2
time step continuity errors : sum local = 1.84731e-08, global = -9.33611e-09, cumulative = 4.77239e-06
smoothSolver:  Solving for omega, Initial residual = 1.074e-08, Final residual = 1.32674e-09, No Iterations 1
smoothSolver:  Solving for k, Initial residual = 1.99438e-08, Final residual = 1.31046e-09, No Iterations 1
ExecutionTime = 94.96 s  ClockTime = 95 s

forces forcesFish write:
    Sum of forces
        Total    : (0.22057 0.0134337 -0.00223756)
        Pressure : (0.0869666 0.0130193 -0.00224005)
        Viscous  : (0.133604 0.000414363 2.48783e-06)
    Sum of moments
        Total    : (2.28726e-05 0.000844893 0.00391141)
        Pressure : (2.24335e-05 0.000848411 0.00381486)
        Viscous  : (4.39115e-07 -3.51775e-06 9.65463e-05)
    writing force and moment files.

Time = 169

smoothSolver:  Solving for Ux, Initial residual = 1.13993e-07, Final residual = 8.38475e-09, No Iterations 1
smoothSolver:  Solving for Uy, Initial residual = 1.52744e-05, Final residual = 1.15694e-06, No Iterations 1
smoothSolver:  Solving for Uz, Initial residual = 1.55709e-05, Final residual = 1.16175e-06, No Iterations 1
GAMG:  Solving for p, Initial residual = 1.79454e-05, Final residual = 1.35427e-06, No Iterations 3
time step continuity errors : sum local = 1.34812e-08, global = -4.93237e-09, cumulative = 4.76746e-06
smoothSolver:  Solving for omega, Initial residual = 7.49819e-09, Final residual = 7.49819e-09, No Iterations 0
smoothSolver:  Solving for k, Initial residual = 1.88976e-08, Final residual = 1.24554e-09, No Iterations 1
ExecutionTime = 95.53 s  ClockTime = 96 s

forces forcesFish write:
    Sum of forces
        Total    : (0.220575 0.0134382 -0.00223803)
        Pressure : (0.0869713 0.0130239 -0.00223878)
        Viscous  : (0.133603 0.000414334 7.52902e-07)
    Sum of moments
        Total    : (2.28768e-05 0.000845103 0.00391323)
        Pressure : (2.24076e-05 0.00084793 0.0038167)
        Viscous  : (4.69233e-07 -2.82731e-06 9.6529e-05)
    writing force and moment files.

Time = 170

smoothSolver:  Solving for Ux, Initial residual = 1.59233e-07, Final residual = 9.82835e-09, No Iterations 1
smoothSolver:  Solving for Uy, Initial residual = 1.4819e-05, Final residual = 1.11808e-06, No Iterations 1
smoothSolver:  Solving for Uz, Initial residual = 1.51279e-05, Final residual = 1.12181e-06, No Iterations 1
GAMG:  Solving for p, Initial residual = 1.73214e-05, Final residual = 1.56422e-06, No Iterations 2
time step continuity errors : sum local = 1.5571e-08, global = -6.49273e-09, cumulative = 4.76097e-06
smoothSolver:  Solving for omega, Initial residual = 7.32208e-09, Final residual = 7.32208e-09, No Iterations 0
smoothSolver:  Solving for k, Initial residual = 1.82972e-08, Final residual = 1.23026e-09, No Iterations 1
ExecutionTime = 96.05 s  ClockTime = 96 s

forces forcesFish write:
    Sum of forces
        Total    : (0.220579 0.0134422 -0.00223596)
        Pressure : (0.0869758 0.0130278 -0.00223849)
        Viscous  : (0.133603 0.000414464 2.53665e-06)
    Sum of moments
        Total    : (2.28372e-05 0.000844275 0.00391485)
        Pressure : (2.23989e-05 0.000847811 0.00381827)
        Viscous  : (4.3831e-07 -3.53645e-06 9.65783e-05)
    writing force and moment files.

Time = 171

smoothSolver:  Solving for Ux, Initial residual = 1.69122e-07, Final residual = 1.02507e-08, No Iterations 1
smoothSolver:  Solving for Uy, Initial residual = 1.41519e-05, Final residual = 1.06968e-06, No Iterations 1
smoothSolver:  Solving for Uz, Initial residual = 1.44532e-05, Final residual = 1.08594e-06, No Iterations 1
GAMG:  Solving for p, Initial residual = 1.66656e-05, Final residual = 1.40387e-06, No Iterations 2
time step continuity errors : sum local = 1.39748e-08, global = -4.91423e-09, cumulative = 4.75605e-06
smoothSolver:  Solving for omega, Initial residual = 8.43051e-09, Final residual = 8.43051e-09, No Iterations 0
smoothSolver:  Solving for k, Initial residual = 1.78912e-08, Final residual = 1.24001e-09, No Iterations 1
ExecutionTime = 96.58 s  ClockTime = 97 s

forces forcesFish write:
    Sum of forces
        Total    : (0.220582 0.0134461 -0.00223693)
        Pressure : (0.0869785 0.0130318 -0.00223765)
        Viscous  : (0.133603 0.000414352 7.18977e-07)
    Sum of moments
        Total    : (2.285e-05 0.000844676 0.0039164)
        Pressure : (2.238e-05 0.000847489 0.00381988)
        Viscous  : (4.69938e-07 -2.81318e-06 9.65273e-05)
    writing force and moment files.

Time = 172

smoothSolver:  Solving for Ux, Initial residual = 1.76255e-07, Final residual = 1.03581e-08, No Iterations 1
smoothSolver:  Solving for Uy, Initial residual = 1.3654e-05, Final residual = 1.02738e-06, No Iterations 1
smoothSolver:  Solving for Uz, Initial residual = 1.38049e-05, Final residual = 1.00036e-06, No Iterations 1
GAMG:  Solving for p, Initial residual = 1.57167e-05, Final residual = 1.24246e-06, No Iterations 2
time step continuity errors : sum local = 1.23681e-08, global = -3.22077e-09, cumulative = 4.75283e-06
smoothSolver:  Solving for omega, Initial residual = 8.64384e-09, Final residual = 8.64384e-09, No Iterations 0
smoothSolver:  Solving for k, Initial residual = 1.687e-08, Final residual = 1.19247e-09, No Iterations 1
ExecutionTime = 97.13 s  ClockTime = 97 s

forces forcesFish write:
    Sum of forces
        Total    : (0.220587 0.01345 -0.00223474)
        Pressure : (0.0869837 0.0130355 -0.00223723)
        Viscous  : (0.133603 0.000414558 2.49116e-06)
    Sum of moments
        Total    : (2.28083e-05 0.0008438 0.003918)
        Pressure : (2.23691e-05 0.000847318 0.00382139)
        Viscous  : (4.39145e-07 -3.51778e-06 9.66089e-05)
    writing force and moment files.

Time = 173

smoothSolver:  Solving for Ux, Initial residual = 1.79172e-07, Final residual = 1.02793e-08, No Iterations 1
smoothSolver:  Solving for Uy, Initial residual = 1.29549e-05, Final residual = 9.61892e-07, No Iterations 1
smoothSolver:  Solving for Uz, Initial residual = 1.29146e-05, Final residual = 9.47451e-07, No Iterations 1
GAMG:  Solving for p, Initial residual = 1.49511e-05, Final residual = 1.11334e-06, No Iterations 2
time step continuity errors : sum local = 1.10828e-08, global = -1.4992e-09, cumulative = 4.75133e-06
smoothSolver:  Solving for omega, Initial residual = 1.02341e-08, Final residual = 1.26102e-09, No Iterations 1
smoothSolver:  Solving for k, Initial residual = 1.6021e-08, Final residual = 1.03435e-09, No Iterations 1
ExecutionTime = 97.67 s  ClockTime = 98 s

forces forcesFish write:
    Sum of forces
        Total    : (0.220589 0.013454 -0.00223574)
        Pressure : (0.0869862 0.0130394 -0.00223653)
        Viscous  : (0.133603 0.000414513 7.91883e-07)
    Sum of moments
        Total    : (2.28217e-05 0.000844205 0.00391955)
        Pressure : (2.2353e-05 0.000847047 0.00382296)
        Viscous  : (4.68704e-07 -2.84169e-06 9.65853e-05)
    writing force and moment files.

Time = 174

smoothSolver:  Solving for Ux, Initial residual = 1.80591e-07, Final residual = 1.02057e-08, No Iterations 1
smoothSolver:  Solving for Uy, Initial residual = 1.24489e-05, Final residual = 9.28332e-07, No Iterations 1
smoothSolver:  Solving for Uz, Initial residual = 1.2311e-05, Final residual = 8.91234e-07, No Iterations 1
GAMG:  Solving for p, Initial residual = 1.43881e-05, Final residual = 1.02948e-06, No Iterations 2
time step continuity errors : sum local = 1.0248e-08, global = 1.79904e-10, cumulative = 4.75151e-06
smoothSolver:  Solving for omega, Initial residual = 7.03449e-09, Final residual = 7.03449e-09, No Iterations 0
smoothSolver:  Solving for k, Initial residual = 1.52854e-08, Final residual = 9.75209e-10, No Iterations 1
ExecutionTime = 98.21 s  ClockTime = 98 s

forces forcesFish write:
    Sum of forces
        Total    : (0.220593 0.0134578 -0.00223386)
        Pressure : (0.0869903 0.0130431 -0.00223636)
        Viscous  : (0.133603 0.000414651 2.504e-06)
    Sum of moments
        Total    : (2.27857e-05 0.000843448 0.00392109)
        Pressure : (2.23467e-05 0.00084697 0.00382445)
        Viscous  : (4.39002e-07 -3.5223e-06 9.66392e-05)
    writing force and moment files.

Time = 175

smoothSolver:  Solving for Ux, Initial residual = 1.7896e-07, Final residual = 1.00872e-08, No Iterations 1
smoothSolver:  Solving for Uy, Initial residual = 1.18563e-05, Final residual = 8.86882e-07, No Iterations 1
smoothSolver:  Solving for Uz, Initial residual = 1.17677e-05, Final residual = 8.82514e-07, No Iterations 1
GAMG:  Solving for p, Initial residual = 1.38453e-05, Final residual = 9.64011e-07, No Iterations 2
time step continuity errors : sum local = 9.59637e-09, global = 1.85225e-09, cumulative = 4.75336e-06
smoothSolver:  Solving for omega, Initial residual = 7.29928e-09, Final residual = 7.29928e-09, No Iterations 0
smoothSolver:  Solving for k, Initial residual = 1.48466e-08, Final residual = 9.75301e-10, No Iterations 1
ExecutionTime = 98.73 s  ClockTime = 99 s

forces forcesFish write:
    Sum of forces
        Total    : (0.220595 0.0134615 -0.00223511)
        Pressure : (0.0869922 0.0130469 -0.00223589)
        Viscous  : (0.133603 0.000414506 7.74702e-07)
    Sum of moments
        Total    : (2.28035e-05 0.00084395 0.00392253)
        Pressure : (2.23343e-05 0.000846784 0.00382596)
        Viscous  : (4.69195e-07 -2.83445e-06 9.65745e-05)
    writing force and moment files.

Time = 176

smoothSolver:  Solving for Ux, Initial residual = 1.76088e-07, Final residual = 9.86184e-09, No Iterations 1
smoothSolver:  Solving for Uy, Initial residual = 1.13792e-05, Final residual = 8.58008e-07, No Iterations 1
smoothSolver:  Solving for Uz, Initial residual = 1.13287e-05, Final residual = 8.27324e-07, No Iterations 1
GAMG:  Solving for p, Initial residual = 1.32105e-05, Final residual = 8.97179e-07, No Iterations 2
time step continuity errors : sum local = 8.9311e-09, global = 3.30387e-09, cumulative = 4.75667e-06
smoothSolver:  Solving for omega, Initial residual = 8.07914e-09, Final residual = 8.07914e-09, No Iterations 0
smoothSolver:  Solving for k, Initial residual = 1.42771e-08, Final residual = 9.66962e-10, No Iterations 1
ExecutionTime = 99.25 s  ClockTime = 99 s

forces forcesFish write:
    Sum of forces
        Total    : (0.220599 0.0134651 -0.00223347)
        Pressure : (0.0869966 0.0130504 -0.00223601)
        Viscous  : (0.133603 0.00041469 2.54016e-06)
    Sum of moments
        Total    : (2.27717e-05 0.000843284 0.003924)
        Pressure : (2.23331e-05 0.000846821 0.00382736)
        Viscous  : (4.3861e-07 -3.53646e-06 9.6648e-05)
    writing force and moment files.

Time = 177

smoothSolver:  Solving for Ux, Initial residual = 1.69685e-07, Final residual = 9.49436e-09, No Iterations 1
smoothSolver:  Solving for Uy, Initial residual = 1.07209e-05, Final residual = 8.10208e-07, No Iterations 1
smoothSolver:  Solving for Uz, Initial residual = 1.06922e-05, Final residual = 8.05835e-07, No Iterations 1
GAMG:  Solving for p, Initial residual = 1.2656e-05, Final residual = 8.84061e-07, No Iterations 2
time step continuity errors : sum local = 8.80058e-09, global = 4.58071e-09, cumulative = 4.76125e-06
smoothSolver:  Solving for omega, Initial residual = 7.85661e-09, Final residual = 7.85661e-09, No Iterations 0
smoothSolver:  Solving for k, Initial residual = 1.39792e-08, Final residual = 9.65296e-10, No Iterations 1
ExecutionTime = 99.78 s  ClockTime = 100 s

forces forcesFish write:
    Sum of forces
        Total    : (0.220602 0.0134686 -0.00223479)
        Pressure : (0.0869989 0.0130539 -0.00223556)
        Viscous  : (0.133603 0.000414666 7.72565e-07)
    Sum of moments
        Total    : (2.27908e-05 0.00084381 0.00392539)
        Pressure : (2.23216e-05 0.000846643 0.00382875)
        Viscous  : (4.69271e-07 -2.83313e-06 9.66344e-05)
    writing force and moment files.

Time = 178

smoothSolver:  Solving for Ux, Initial residual = 1.62032e-07, Final residual = 9.10443e-09, No Iterations 1
smoothSolver:  Solving for Uy, Initial residual = 1.02477e-05, Final residual = 7.83196e-07, No Iterations 1
smoothSolver:  Solving for Uz, Initial residual = 1.02725e-05, Final residual = 7.61487e-07, No Iterations 1
GAMG:  Solving for p, Initial residual = 1.22547e-05, Final residual = 9.22211e-07, No Iterations 2
time step continuity errors : sum local = 9.18039e-09, global = 5.59043e-09, cumulative = 4.76684e-06
smoothSolver:  Solving for omega, Initial residual = 9.1467e-09, Final residual = 9.1467e-09, No Iterations 0
smoothSolver:  Solving for k, Initial residual = 1.36281e-08, Final residual = 9.56743e-10, No Iterations 1
ExecutionTime = 100.33 s  ClockTime = 100 s

forces forcesFish write:
    Sum of forces
        Total    : (0.220605 0.0134719 -0.00223314)
        Pressure : (0.0870026 0.0130571 -0.00223565)
        Viscous  : (0.133603 0.000414792 2.51195e-06)
    Sum of moments
        Total    : (2.27592e-05 0.00084314 0.00392673)
        Pressure : (2.23201e-05 0.000846665 0.00383004)
        Viscous  : (4.3912e-07 -3.52474e-06 9.66833e-05)
    writing force and moment files.

Time = 179

smoothSolver:  Solving for Ux, Initial residual = 1.509e-07, Final residual = 8.61217e-09, No Iterations 1
smoothSolver:  Solving for Uy, Initial residual = 9.68121e-06, Final residual = 7.4425e-07, No Iterations 1
smoothSolver:  Solving for Uz, Initial residual = 9.81093e-06, Final residual = 7.597e-07, No Iterations 1
GAMG:  Solving for p, Initial residual = 1.19736e-05, Final residual = 1.0198e-06, No Iterations 2
time step continuity errors : sum local = 1.0152e-08, global = 6.38235e-09, cumulative = 4.77322e-06
smoothSolver:  Solving for omega, Initial residual = 9.40164e-09, Final residual = 9.40164e-09, No Iterations 0
smoothSolver:  Solving for k, Initial residual = 1.36093e-08, Final residual = 9.62248e-10, No Iterations 1
ExecutionTime = 100.86 s  ClockTime = 101 s


SIMPLE solution converged in 179 iterations

forces forcesFish write:
    Sum of forces
        Total    : (0.220607 0.013475 -0.00223454)
        Pressure : (0.0870044 0.0130603 -0.00223529)
        Viscous  : (0.133602 0.000414658 7.49897e-07)
    Sum of moments
        Total    : (2.27801e-05 0.000843698 0.00392795)
        Pressure : (2.23103e-05 0.000846522 0.00383133)
        Viscous  : (4.69822e-07 -2.82379e-06 9.66243e-05)
    writing force and moment files.

End

