/*---------------------------------------------------------------------------*\
| =========                 |                                                 |
| \\      /  F ield         | OpenFOAM: The Open Source CFD Toolbox           |
|  \\    /   O peration     | Version:  2512                                  |
|   \\  /    A nd           | Website:  www.openfoam.com                      |
|    \\/     M anipulation  |                                                 |
\*---------------------------------------------------------------------------*/
Build  : _bd2b6720-20260127 OPENFOAM=2512 version=2512
Arch   : "LSB;label=32;scalar=64"
Exec   : simpleFoam
Date   : Mar 27 2026
Time   : 17:14:12
Host   : mathias-laptop
PID    : 210335
I/O    : uncollated
Case   : /home/mat/OpenFOAM/mat-run/speed_sweep_runs/U_0p8
nProcs : 1
trapFpe: Floating point exception trapping enabled (FOAM_SIGFPE).
memory pool : not available
fileModificationChecking : Monitoring run-time modified files using timeStampMaster (fileModificationSkew 5, maxFileModificationPolls 20)
allowSystemOperations : Allowing user-supplied system call operations

// * * * * * * * * * * * * * * * * * * * * * * * * * * * * * * * * * * * * * //
Create time

Create mesh for time = 0


SIMPLE: convergence criteria
    field p	 tolerance 0.0001
    field U	 tolerance 1e-05
    field "(k|omega)"	 tolerance 1e-05

Reading field p

Reading field U

Reading/calculating face flux field phi

Selecting incompressible transport model Newtonian
Selecting turbulence model type RAS
Selecting RAS turbulence model kOmegaSST
Selecting patchDistMethod meshWave
RAS
{
    RASModel        kOmegaSST;
    turbulence      on;
    printCoeffs     on;
    alphaK1         0.85;
    alphaK2         1;
    alphaOmega1     0.5;
    alphaOmega2     0.856;
    gamma1          0.555556;
    gamma2          0.44;
    beta1           0.075;
    beta2           0.0828;
    betaStar        0.09;
    a1              0.31;
    b1              1;
    c1              10;
    F3              false;
    decayControl    false;
    kInf            0;
    omegaInf        0;
}

No MRF models present

No finite volume options present

Starting time loop

forces forcesFish:
    rho: rhoInf
    Freestream density (rhoInf) set to 1000
    Not including porosity effects

Time = 1

smoothSolver:  Solving for Ux, Initial residual = 0.999999, Final residual = 0.075879, No Iterations 2
smoothSolver:  Solving for Uy, Initial residual = 1, Final residual = 0.0982955, No Iterations 2
smoothSolver:  Solving for Uz, Initial residual = 1, Final residual = 0.0744267, No Iterations 2
GAMG:  Solving for p, Initial residual = 1, Final residual = 0.0510796, No Iterations 5
time step continuity errors : sum local = 5.56148e-05, global = -8.76148e-06, cumulative = -8.76148e-06
smoothSolver:  Solving for omega, Initial residual = 0.00748152, Final residual = 0.000325865, No Iterations 1
bounding omega, min: -10.2461 max: 11363.5 average: 125.081
smoothSolver:  Solving for k, Initial residual = 1, Final residual = 0.0368638, No Iterations 1
ExecutionTime = 3.06 s  ClockTime = 3 s

forces forcesFish write:
    Sum of forces
        Total    : (12.96 -0.236352 -0.059056)
        Pressure : (12.5917 -0.236153 -0.0590094)
        Viscous  : (0.368242 -0.000199356 -4.65111e-05)
    Sum of moments
        Total    : (0.00163092 0.0147358 0.172523)
        Pressure : (0.00162818 0.0147631 0.170458)
        Viscous  : (2.73509e-06 -2.73002e-05 0.00206531)
    writing force and moment files.

Time = 2

smoothSolver:  Solving for Ux, Initial residual = 0.0195262, Final residual = 0.00113544, No Iterations 2
smoothSolver:  Solving for Uy, Initial residual = 0.272402, Final residual = 0.019585, No Iterations 2
smoothSolver:  Solving for Uz, Initial residual = 0.320054, Final residual = 0.0236615, No Iterations 2
GAMG:  Solving for p, Initial residual = 0.123418, Final residual = 0.0101304, No Iterations 3
time step continuity errors : sum local = 0.000114205, global = -7.65064e-06, cumulative = -1.64121e-05
smoothSolver:  Solving for omega, Initial residual = 0.00445126, Final residual = 0.000183534, No Iterations 1
smoothSolver:  Solving for k, Initial residual = 0.344673, Final residual = 0.0132034, No Iterations 1
ExecutionTime = 3.96 s  ClockTime = 4 s

forces forcesFish write:
    Sum of forces
        Total    : (16.8852 0.0117004 -0.0880506)
        Pressure : (16.5345 0.0118886 -0.088082)
        Viscous  : (0.350672 -0.000188214 3.13638e-05)
    Sum of moments
        Total    : (0.00244341 0.0215663 0.275588)
        Pressure : (0.00244188 0.0216259 0.273778)
        Viscous  : (1.52382e-06 -5.95633e-05 0.00181056)
    writing force and moment files.

Time = 3

smoothSolver:  Solving for Ux, Initial residual = 0.0063156, Final residual = 0.000371629, No Iterations 2
smoothSolver:  Solving for Uy, Initial residual = 0.173978, Final residual = 0.0124727, No Iterations 2
smoothSolver:  Solving for Uz, Initial residual = 0.206891, Final residual = 0.0152364, No Iterations 2
GAMG:  Solving for p, Initial residual = 0.424565, Final residual = 0.0414268, No Iterations 2
time step continuity errors : sum local = 0.000194579, global = -8.74673e-06, cumulative = -2.51589e-05
smoothSolver:  Solving for omega, Initial residual = 0.00306769, Final residual = 0.000135827, No Iterations 1
smoothSolver:  Solving for k, Initial residual = 0.193599, Final residual = 0.00767717, No Iterations 1
ExecutionTime = 4.78 s  ClockTime = 5 s

forces forcesFish write:
    Sum of forces
        Total    : (16.0164 0.184897 -0.078858)
        Pressure : (15.6825 0.184853 -0.078996)
        Viscous  : (0.333862 4.32506e-05 0.000138037)
    Sum of moments
        Total    : (0.00239329 0.0212231 0.288046)
        Pressure : (0.00239362 0.021321 0.286511)
        Viscous  : (-3.3398e-07 -9.78828e-05 0.00153498)
    writing force and moment files.

Time = 4

smoothSolver:  Solving for Ux, Initial residual = 0.00345307, Final residual = 0.000199054, No Iterations 2
smoothSolver:  Solving for Uy, Initial residual = 0.123662, Final residual = 0.00874386, No Iterations 2
smoothSolver:  Solving for Uz, Initial residual = 0.132849, Final residual = 0.00964388, No Iterations 2
GAMG:  Solving for p, Initial residual = 0.182876, Final residual = 0.00748695, No Iterations 3
time step continuity errors : sum local = 0.00011259, global = -6.93986e-06, cumulative = -3.20987e-05
smoothSolver:  Solving for omega, Initial residual = 0.00225548, Final residual = 0.000106008, No Iterations 1
smoothSolver:  Solving for k, Initial residual = 0.125889, Final residual = 0.00512992, No Iterations 1
ExecutionTime = 5.65 s  ClockTime = 6 s

forces forcesFish write:
    Sum of forces
        Total    : (12.3298 0.32734 -0.0539234)
        Pressure : (12.0078 0.327157 -0.0541638)
        Viscous  : (0.32201 0.000183035 0.000240411)
    Sum of moments
        Total    : (0.00197361 0.0162881 0.243922)
        Pressure : (0.00197575 0.0164193 0.242595)
        Viscous  : (-2.13989e-06 -0.000131191 0.00132656)
    writing force and moment files.

Time = 5

smoothSolver:  Solving for Ux, Initial residual = 0.00210514, Final residual = 0.000113882, No Iterations 2
smoothSolver:  Solving for Uy, Initial residual = 0.0728527, Final residual = 0.00502285, No Iterations 2
smoothSolver:  Solving for Uz, Initial residual = 0.0804632, Final residual = 0.00566979, No Iterations 2
GAMG:  Solving for p, Initial residual = 0.084638, Final residual = 0.00414123, No Iterations 3
time step continuity errors : sum local = 0.000137751, global = -3.50969e-06, cumulative = -3.56084e-05
smoothSolver:  Solving for omega, Initial residual = 0.00172358, Final residual = 8.47194e-05, No Iterations 1
smoothSolver:  Solving for k, Initial residual = 0.0884987, Final residual = 0.00368547, No Iterations 1
ExecutionTime = 6.54 s  ClockTime = 7 s

forces forcesFish write:
    Sum of forces
        Total    : (7.63538 0.405857 -0.0242751)
        Pressure : (7.3205 0.405411 -0.0246017)
        Viscous  : (0.314873 0.000445697 0.000326629)
    Sum of moments
        Total    : (0.00140148 0.0095162 0.167136)
        Pressure : (0.00140509 0.00967241 0.165897)
        Viscous  : (-3.60789e-06 -0.000156211 0.00123979)
    writing force and moment files.

Time = 6

smoothSolver:  Solving for Ux, Initial residual = 0.00143147, Final residual = 6.06081e-05, No Iterations 2
smoothSolver:  Solving for Uy, Initial residual = 0.0387951, Final residual = 0.00219479, No Iterations 2
smoothSolver:  Solving for Uz, Initial residual = 0.045354, Final residual = 0.0026472, No Iterations 2
GAMG:  Solving for p, Initial residual = 0.0462188, Final residual = 0.00260754, No Iterations 3
time step continuity errors : sum local = 0.000133583, global = 1.47546e-06, cumulative = -3.41329e-05
smoothSolver:  Solving for omega, Initial residual = 0.00135252, Final residual = 6.8469e-05, No Iterations 1
smoothSolver:  Solving for k, Initial residual = 0.0658359, Final residual = 0.00279407, No Iterations 1
ExecutionTime = 7.42 s  ClockTime = 8 s

forces forcesFish write:
    Sum of forces
        Total    : (3.28668 0.417711 -0.00268203)
        Pressure : (2.97453 0.417036 -0.00307461)
        Viscous  : (0.312149 0.000675469 0.00039258)
    Sum of moments
        Total    : (0.00089952 0.00356402 0.083843)
        Pressure : (0.000904157 0.00373702 0.0825926)
        Viscous  : (-4.63689e-06 -0.000172996 0.00125044)
    writing force and moment files.

Time = 7

smoothSolver:  Solving for Ux, Initial residual = 0.00120802, Final residual = 3.68526e-05, No Iterations 2
smoothSolver:  Solving for Uy, Initial residual = 0.0300794, Final residual = 0.00125726, No Iterations 2
smoothSolver:  Solving for Uz, Initial residual = 0.0382916, Final residual = 0.00149399, No Iterations 2
GAMG:  Solving for p, Initial residual = 0.0294909, Final residual = 0.00163795, No Iterations 3
time step continuity errors : sum local = 0.000107007, global = 6.41446e-06, cumulative = -2.77185e-05
smoothSolver:  Solving for omega, Initial residual = 0.00108532, Final residual = 5.60601e-05, No Iterations 1
smoothSolver:  Solving for k, Initial residual = 0.0511476, Final residual = 0.00221087, No Iterations 1
ExecutionTime = 8.3 s  ClockTime = 9 s

forces forcesFish write:
    Sum of forces
        Total    : (0.0847866 0.376912 0.00474468)
        Pressure : (-0.227906 0.376178 0.00430417)
        Viscous  : (0.312693 0.000733345 0.000440512)
    Sum of moments
        Total    : (0.000582988 -4.45002e-05 0.0147878)
        Pressure : (0.000588425 0.000138448 0.0134627)
        Viscous  : (-5.43726e-06 -0.000182948 0.00132512)
    writing force and moment files.

Time = 8

smoothSolver:  Solving for Ux, Initial residual = 0.00119601, Final residual = 4.01276e-05, No Iterations 2
smoothSolver:  Solving for Uy, Initial residual = 0.0304529, Final residual = 0.00158241, No Iterations 2
smoothSolver:  Solving for Uz, Initial residual = 0.0468516, Final residual = 0.00243806, No Iterations 2
GAMG:  Solving for p, Initial residual = 0.0249911, Final residual = 0.00235142, No Iterations 2
time step continuity errors : sum local = 0.000172643, global = 1.08451e-05, cumulative = -1.68733e-05
smoothSolver:  Solving for omega, Initial residual = 0.000888245, Final residual = 4.66998e-05, No Iterations 1
smoothSolver:  Solving for k, Initial residual = 0.0411189, Final residual = 0.00181145, No Iterations 1
ExecutionTime = 9.14 s  ClockTime = 9 s

forces forcesFish write:
    Sum of forces
        Total    : (-1.56631 0.313305 0.00553007)
        Pressure : (-1.8813 0.31272 0.00506121)
        Viscous  : (0.314988 0.000584309 0.000468864)
    Sum of moments
        Total    : (0.000396654 -0.00163991 -0.024898)
        Pressure : (0.000402675 -0.00145216 -0.0263229)
        Viscous  : (-6.02086e-06 -0.000187757 0.00142493)
    writing force and moment files.

Time = 9

smoothSolver:  Solving for Ux, Initial residual = 0.00126062, Final residual = 4.87873e-05, No Iterations 2
smoothSolver:  Solving for Uy, Initial residual = 0.0267549, Final residual = 0.0014905, No Iterations 2
smoothSolver:  Solving for Uz, Initial residual = 0.0506125, Final residual = 0.00286885, No Iterations 2
GAMG:  Solving for p, Initial residual = 0.0277025, Final residual = 0.00209562, No Iterations 2
time step continuity errors : sum local = 0.000157049, global = 1.56807e-05, cumulative = -1.19263e-06
smoothSolver:  Solving for omega, Initial residual = 0.000738535, Final residual = 3.94894e-05, No Iterations 1
smoothSolver:  Solving for k, Initial residual = 0.033968, Final residual = 0.00152567, No Iterations 1
ExecutionTime = 9.97 s  ClockTime = 10 s

forces forcesFish write:
    Sum of forces
        Total    : (-2.01161 0.239601 -0.0060437)
        Pressure : (-2.32911 0.239252 -0.00651178)
        Viscous  : (0.3175 0.000348884 0.000468077)
    Sum of moments
        Total    : (0.000423803 -0.000940113 -0.0397158)
        Pressure : (0.000430225 -0.000754367 -0.041243)
        Viscous  : (-6.42208e-06 -0.000185746 0.00152719)
    writing force and moment files.

Time = 10

smoothSolver:  Solving for Ux, Initial residual = 0.0012999, Final residual = 5.25811e-05, No Iterations 2
smoothSolver:  Solving for Uy, Initial residual = 0.0208579, Final residual = 0.00114968, No Iterations 2
smoothSolver:  Solving for Uz, Initial residual = 0.0474452, Final residual = 0.00267334, No Iterations 2
GAMG:  Solving for p, Initial residual = 0.0320376, Final residual = 0.00249104, No Iterations 2
time step continuity errors : sum local = 0.000178881, global = 2.03425e-05, cumulative = 1.91499e-05
smoothSolver:  Solving for omega, Initial residual = 0.000622056, Final residual = 3.38765e-05, No Iterations 1
smoothSolver:  Solving for k, Initial residual = 0.0286576, Final residual = 0.00131128, No Iterations 1
ExecutionTime = 10.83 s  ClockTime = 11 s

forces forcesFish write:
    Sum of forces
        Total    : (-1.63444 0.162415 -0.0235053)
        Pressure : (-1.95349 0.162272 -0.0239529)
        Viscous  : (0.319044 0.00014377 0.000447604)
    Sum of moments
        Total    : (0.000572548 0.00103188 -0.0361843)
        Pressure : (0.000579213 0.00121188 -0.0378058)
        Viscous  : (-6.6653e-06 -0.000179998 0.00162148)
    writing force and moment files.

Time = 11

smoothSolver:  Solving for Ux, Initial residual = 0.00126236, Final residual = 4.9626e-05, No Iterations 2
smoothSolver:  Solving for Uy, Initial residual = 0.0152961, Final residual = 0.000777707, No Iterations 2
smoothSolver:  Solving for Uz, Initial residual = 0.0402593, Final residual = 0.00210614, No Iterations 2
GAMG:  Solving for p, Initial residual = 0.0339998, Final residual = 0.00283504, No Iterations 2
time step continuity errors : sum local = 0.000186319, global = 2.28958e-05, cumulative = 4.20457e-05
smoothSolver:  Solving for omega, Initial residual = 0.000529393, Final residual = 2.93935e-05, No Iterations 1
smoothSolver:  Solving for k, Initial residual = 0.024571, Final residual = 0.00114377, No Iterations 1
ExecutionTime = 11.68 s  ClockTime = 12 s

forces forcesFish write:
    Sum of forces
        Total    : (-0.804104 0.0816929 -0.0406489)
        Pressure : (-1.12308 0.0816549 -0.0410659)
        Viscous  : (0.31898 3.79588e-05 0.000416962)
    Sum of moments
        Total    : (0.000762099 0.00327694 -0.0226946)
        Pressure : (0.000768928 0.00344854 -0.0243927)
        Viscous  : (-6.82907e-06 -0.000171609 0.00169814)
    writing force and moment files.

Time = 12

smoothSolver:  Solving for Ux, Initial residual = 0.00114775, Final residual = 4.10489e-05, No Iterations 2
smoothSolver:  Solving for Uy, Initial residual = 0.0115037, Final residual = 0.000472958, No Iterations 2
smoothSolver:  Solving for Uz, Initial residual = 0.0329389, Final residual = 0.00140075, No Iterations 2
GAMG:  Solving for p, Initial residual = 0.034545, Final residual = 0.00300094, No Iterations 2
time step continuity errors : sum local = 0.000173889, global = 2.32637e-05, cumulative = 6.53094e-05
smoothSolver:  Solving for omega, Initial residual = 0.00045402, Final residual = 2.56371e-05, No Iterations 1
smoothSolver:  Solving for k, Initial residual = 0.0213382, Final residual = 0.00100909, No Iterations 1
ExecutionTime = 12.51 s  ClockTime = 13 s

forces forcesFish write:
    Sum of forces
        Total    : (0.156669 0.00719361 -0.0505256)
        Pressure : (-0.160597 0.00716634 -0.0509053)
        Viscous  : (0.317266 2.72766e-05 0.000379751)
    Sum of moments
        Total    : (0.000910706 0.00465331 -0.00632253)
        Pressure : (0.000917703 0.00481668 -0.00807737)
        Viscous  : (-6.99679e-06 -0.000163369 0.00175484)
    writing force and moment files.

Time = 13

smoothSolver:  Solving for Ux, Initial residual = 0.000986017, Final residual = 3.01048e-05, No Iterations 2
smoothSolver:  Solving for Uy, Initial residual = 0.0101764, Final residual = 0.000373388, No Iterations 2
smoothSolver:  Solving for Uz, Initial residual = 0.030261, Final residual = 0.00107883, No Iterations 2
GAMG:  Solving for p, Initial residual = 0.0347169, Final residual = 0.00290387, No Iterations 2
time step continuity errors : sum local = 0.000145824, global = 2.16093e-05, cumulative = 8.69186e-05
smoothSolver:  Solving for omega, Initial residual = 0.000392, Final residual = 2.24335e-05, No Iterations 1
smoothSolver:  Solving for k, Initial residual = 0.0187237, Final residual = 0.000897971, No Iterations 1
ExecutionTime = 13.35 s  ClockTime = 14 s

forces forcesFish write:
    Sum of forces
        Total    : (1.00262 -0.0476968 -0.0498436)
        Pressure : (0.688377 -0.0478233 -0.0501897)
        Viscous  : (0.31424 0.000126496 0.000346105)
    Sum of moments
        Total    : (0.00096383 0.0046462 0.00849183)
        Pressure : (0.00097095 0.00480058 0.00669822)
        Viscous  : (-7.12051e-06 -0.000154385 0.00179362)
    writing force and moment files.

Time = 14

smoothSolver:  Solving for Ux, Initial residual = 0.000836394, Final residual = 2.20608e-05, No Iterations 2
smoothSolver:  Solving for Uy, Initial residual = 0.0103453, Final residual = 0.000417932, No Iterations 2
smoothSolver:  Solving for Uz, Initial residual = 0.0311706, Final residual = 0.00119846, No Iterations 2
GAMG:  Solving for p, Initial residual = 0.0359243, Final residual = 0.00260575, No Iterations 2
time step continuity errors : sum local = 0.00011474, global = 1.88846e-05, cumulative = 0.000105803
smoothSolver:  Solving for omega, Initial residual = 0.000340302, Final residual = 1.96817e-05, No Iterations 1
smoothSolver:  Solving for k, Initial residual = 0.0165683, Final residual = 0.000804383, No Iterations 1
ExecutionTime = 14.2 s  ClockTime = 14 s

forces forcesFish write:
    Sum of forces
        Total    : (1.59424 -0.0724369 -0.0396999)
        Pressure : (1.28378 -0.0727224 -0.0400194)
        Viscous  : (0.310461 0.000285496 0.00031949)
    Sum of moments
        Total    : (0.000914515 0.00341746 0.0198398)
        Pressure : (0.000921748 0.00356337 0.0180242)
        Viscous  : (-7.2331e-06 -0.000145905 0.00181567)
    writing force and moment files.

Time = 15

smoothSolver:  Solving for Ux, Initial residual = 0.000742379, Final residual = 1.77497e-05, No Iterations 2
smoothSolver:  Solving for Uy, Initial residual = 0.0103965, Final residual = 0.000445058, No Iterations 2
smoothSolver:  Solving for Uz, Initial residual = 0.0313783, Final residual = 0.00132638, No Iterations 2
GAMG:  Solving for p, Initial residual = 0.0385735, Final residual = 0.00234114, No Iterations 2
time step continuity errors : sum local = 9.42901e-05, global = 1.55139e-05, cumulative = 0.000121317
smoothSolver:  Solving for omega, Initial residual = 0.000296759, Final residual = 1.73296e-05, No Iterations 1
smoothSolver:  Solving for k, Initial residual = 0.0147635, Final residual = 0.000724568, No Iterations 1
ExecutionTime = 15.04 s  ClockTime = 15 s

forces forcesFish write:
    Sum of forces
        Total    : (1.89249 -0.0653794 -0.0247432)
        Pressure : (1.58599 -0.0658404 -0.025048)
        Viscous  : (0.306499 0.00046104 0.000304779)
    Sum of moments
        Total    : (0.000794821 0.00162775 0.0274714)
        Pressure : (0.000802149 0.00176822 0.0256444)
        Viscous  : (-7.32856e-06 -0.000140475 0.001827)
    writing force and moment files.

Time = 16

smoothSolver:  Solving for Ux, Initial residual = 0.000680571, Final residual = 1.58208e-05, No Iterations 2
smoothSolver:  Solving for Uy, Initial residual = 0.0098643, Final residual = 0.000411004, No Iterations 2
smoothSolver:  Solving for Uz, Initial residual = 0.0298304, Final residual = 0.00126691, No Iterations 2
GAMG:  Solving for p, Initial residual = 0.0408885, Final residual = 0.00242664, No Iterations 2
time step continuity errors : sum local = 9.48467e-05, global = 1.14201e-05, cumulative = 0.000132737
smoothSolver:  Solving for omega, Initial residual = 0.000259764, Final residual = 1.53356e-05, No Iterations 1
smoothSolver:  Solving for k, Initial residual = 0.013224, Final residual = 0.000655448, No Iterations 1
ExecutionTime = 15.88 s  ClockTime = 16 s

forces forcesFish write:
    Sum of forces
        Total    : (1.95174 -0.0350915 -0.00961105)
        Pressure : (1.64899 -0.0357028 -0.009912)
        Viscous  : (0.302756 0.00061134 0.000300953)
    Sum of moments
        Total    : (0.00064697 -7.0247e-05 0.0320316)
        Pressure : (0.000654419 6.77636e-05 0.0302013)
        Viscous  : (-7.44902e-06 -0.000138011 0.00183028)
    writing force and moment files.

Time = 17

smoothSolver:  Solving for Ux, Initial residual = 0.000625269, Final residual = 1.4529e-05, No Iterations 2
smoothSolver:  Solving for Uy, Initial residual = 0.00872187, Final residual = 0.000328223, No Iterations 2
smoothSolver:  Solving for Uz, Initial residual = 0.0264563, Final residual = 0.00104293, No Iterations 2
GAMG:  Solving for p, Initial residual = 0.0398265, Final residual = 0.00245538, No Iterations 2
time step continuity errors : sum local = 9.76018e-05, global = 6.09646e-06, cumulative = 0.000138834
smoothSolver:  Solving for omega, Initial residual = 0.000227873, Final residual = 1.35617e-05, No Iterations 1
smoothSolver:  Solving for k, Initial residual = 0.0119028, Final residual = 0.000595558, No Iterations 1
ExecutionTime = 16.73 s  ClockTime = 17 s

forces forcesFish write:
    Sum of forces
        Total    : (1.86654 0.00901763 0.00429554)
        Pressure : (1.56707 0.00830237 0.00399113)
        Viscous  : (0.299475 0.000715258 0.000304405)
    Sum of moments
        Total    : (0.000485694 -0.00146994 0.0345889)
        Pressure : (0.0004933 -0.00133214 0.0327586)
        Viscous  : (-7.60628e-06 -0.000137798 0.00183035)
    writing force and moment files.

Time = 18

smoothSolver:  Solving for Ux, Initial residual = 0.000572272, Final residual = 1.33837e-05, No Iterations 2
smoothSolver:  Solving for Uy, Initial residual = 0.00742783, Final residual = 0.000234609, No Iterations 2
smoothSolver:  Solving for Uz, Initial residual = 0.0224384, Final residual = 0.000744739, No Iterations 2
GAMG:  Solving for p, Initial residual = 0.035878, Final residual = 0.0022591, No Iterations 2
time step continuity errors : sum local = 9.38945e-05, global = 2.96518e-07, cumulative = 0.00013913
smoothSolver:  Solving for omega, Initial residual = 0.000200302, Final residual = 1.19812e-05, No Iterations 1
smoothSolver:  Solving for k, Initial residual = 0.0107637, Final residual = 0.000543523, No Iterations 1
ExecutionTime = 17.58 s  ClockTime = 18 s

forces forcesFish write:
    Sum of forces
        Total    : (1.71302 0.057974 0.0145556)
        Pressure : (1.41628 0.0572148 0.0142435)
        Viscous  : (0.296747 0.000759203 0.000312102)
    Sum of moments
        Total    : (0.000336902 -0.00221507 0.0361736)
        Pressure : (0.000344699 -0.00207581 0.0343458)
        Viscous  : (-7.79752e-06 -0.000139263 0.00182778)
    writing force and moment files.

Time = 19

smoothSolver:  Solving for Ux, Initial residual = 0.000519595, Final residual = 1.22485e-05, No Iterations 2
smoothSolver:  Solving for Uy, Initial residual = 0.00639418, Final residual = 0.00017024, No Iterations 2
smoothSolver:  Solving for Uz, Initial residual = 0.019195, Final residual = 0.000494688, No Iterations 2
GAMG:  Solving for p, Initial residual = 0.0308581, Final residual = 0.00196241, No Iterations 2
time step continuity errors : sum local = 8.62509e-05, global = -4.62169e-06, cumulative = 0.000134509
smoothSolver:  Solving for omega, Initial residual = 0.000176502, Final residual = 1.06026e-05, No Iterations 1
smoothSolver:  Solving for k, Initial residual = 0.00976471, Final residual = 0.000497462, No Iterations 1
ExecutionTime = 18.42 s  ClockTime = 19 s

forces forcesFish write:
    Sum of forces
        Total    : (1.55153 0.10153 0.0187417)
        Pressure : (1.25701 0.100787 0.0184205)
        Viscous  : (0.294525 0.000743178 0.000321154)
    Sum of moments
        Total    : (0.000231947 -0.00198939 0.0373401)
        Pressure : (0.000239972 -0.00184761 0.0355165)
        Viscous  : (-8.02555e-06 -0.000141773 0.00182357)
    writing force and moment files.

Time = 20

smoothSolver:  Solving for Ux, Initial residual = 0.000472036, Final residual = 1.11137e-05, No Iterations 2
smoothSolver:  Solving for Uy, Initial residual = 0.00572715, Final residual = 0.000151434, No Iterations 2
smoothSolver:  Solving for Uz, Initial residual = 0.0175024, Final residual = 0.000416963, No Iterations 2
GAMG:  Solving for p, Initial residual = 0.0261533, Final residual = 0.00167654, No Iterations 2
time step continuity errors : sum local = 7.76507e-05, global = -8.88151e-06, cumulative = 0.000125627
smoothSolver:  Solving for omega, Initial residual = 0.000155936, Final residual = 9.42503e-06, No Iterations 1
smoothSolver:  Solving for k, Initial residual = 0.00888853, Final residual = 0.000456698, No Iterations 1
ExecutionTime = 19.28 s  ClockTime = 20 s

forces forcesFish write:
    Sum of forces
        Total    : (1.42222 0.131125 0.0161232)
        Pressure : (1.12953 0.130447 0.0157945)
        Viscous  : (0.29269 0.000678181 0.000328707)
    Sum of moments
        Total    : (0.000189061 -0.000756867 0.0381405)
        Pressure : (0.000197352 -0.000612249 0.0363226)
        Viscous  : (-8.29077e-06 -0.000144617 0.00181788)
    writing force and moment files.

Time = 21

smoothSolver:  Solving for Ux, Initial residual = 0.000433995, Final residual = 1.02292e-05, No Iterations 2
smoothSolver:  Solving for Uy, Initial residual = 0.00518828, Final residual = 0.000149062, No Iterations 2
smoothSolver:  Solving for Uz, Initial residual = 0.0165158, Final residual = 0.000435215, No Iterations 2
GAMG:  Solving for p, Initial residual = 0.0230006, Final residual = 0.0014543, No Iterations 2
time step continuity errors : sum local = 7.00463e-05, global = -1.22994e-05, cumulative = 0.000113328
smoothSolver:  Solving for omega, Initial residual = 0.000138094, Final residual = 8.4264e-06, No Iterations 1
smoothSolver:  Solving for k, Initial residual = 0.00811456, Final residual = 0.00042038, No Iterations 1
ExecutionTime = 20.12 s  ClockTime = 20 s

forces forcesFish write:
    Sum of forces
        Total    : (1.34272 0.142529 0.00796613)
        Pressure : (1.05163 0.141944 0.00763173)
        Viscous  : (0.291089 0.000585491 0.000334404)
    Sum of moments
        Total    : (0.000206832 0.00120658 0.0383659)
        Pressure : (0.000215434 0.00135407 0.036554)
        Viscous  : (-8.6015e-06 -0.000147495 0.00181192)
    writing force and moment files.

Time = 22

smoothSolver:  Solving for Ux, Initial residual = 0.000398552, Final residual = 9.44016e-06, No Iterations 2
smoothSolver:  Solving for Uy, Initial residual = 0.00464404, Final residual = 0.000138373, No Iterations 2
smoothSolver:  Solving for Uz, Initial residual = 0.0153301, Final residual = 0.000438421, No Iterations 2
GAMG:  Solving for p, Initial residual = 0.0214948, Final residual = 0.00132936, No Iterations 2
time step continuity errors : sum local = 6.5477e-05, global = -1.47227e-05, cumulative = 9.86049e-05
smoothSolver:  Solving for omega, Initial residual = 0.000122518, Final residual = 7.5702e-06, No Iterations 1
smoothSolver:  Solving for k, Initial residual = 0.00741997, Final residual = 0.000387481, No Iterations 1
ExecutionTime = 20.93 s  ClockTime = 21 s

forces forcesFish write:
    Sum of forces
        Total    : (1.31138 0.13691 -0.00330496)
        Pressure : (1.02179 0.136422 -0.00364297)
        Viscous  : (0.28959 0.000488025 0.000338005)
    Sum of moments
        Total    : (0.00026874 0.00347417 0.0378849)
        Pressure : (0.00027769 0.00362425 0.0360785)
        Viscous  : (-8.95017e-06 -0.000150079 0.00180638)
    writing force and moment files.

Time = 23

smoothSolver:  Solving for Ux, Initial residual = 0.0003671, Final residual = 8.5541e-06, No Iterations 2
smoothSolver:  Solving for Uy, Initial residual = 0.00407604, Final residual = 0.00011844, No Iterations 2
smoothSolver:  Solving for Uz, Initial residual = 0.0137867, Final residual = 0.000396713, No Iterations 2
GAMG:  Solving for p, Initial residual = 0.0205329, Final residual = 0.00124806, No Iterations 2
time step continuity errors : sum local = 6.1901e-05, global = -1.59999e-05, cumulative = 8.2605e-05
smoothSolver:  Solving for omega, Initial residual = 0.000108828, Final residual = 6.83245e-06, No Iterations 1
smoothSolver:  Solving for k, Initial residual = 0.00679862, Final residual = 0.000357783, No Iterations 1
ExecutionTime = 21.74 s  ClockTime = 22 s

forces forcesFish write:
    Sum of forces
        Total    : (1.31461 0.118617 -0.0156532)
        Pressure : (1.02651 0.11821 -0.0159937)
        Viscous  : (0.288093 0.000406399 0.000340531)
    Sum of moments
        Total    : (0.000357742 0.00571733 0.0367177)
        Pressure : (0.000367049 0.00586995 0.0349154)
        Viscous  : (-9.30751e-06 -0.000152626 0.00180227)
    writing force and moment files.

Time = 24

smoothSolver:  Solving for Ux, Initial residual = 0.000341906, Final residual = 7.62349e-06, No Iterations 2
smoothSolver:  Solving for Uy, Initial residual = 0.00359805, Final residual = 9.53723e-05, No Iterations 2
smoothSolver:  Solving for Uz, Initial residual = 0.0121759, Final residual = 0.000322201, No Iterations 2
GAMG:  Solving for p, Initial residual = 0.0195401, Final residual = 0.00114521, No Iterations 2
time step continuity errors : sum local = 5.6531e-05, global = -1.62586e-05, cumulative = 6.63464e-05
smoothSolver:  Solving for omega, Initial residual = 9.67365e-05, Final residual = 6.19342e-06, No Iterations 1
smoothSolver:  Solving for k, Initial residual = 0.00623561, Final residual = 0.000330595, No Iterations 1
ExecutionTime = 22.56 s  ClockTime = 23 s

forces forcesFish write:
    Sum of forces
        Total    : (1.33582 0.0925943 -0.0273932)
        Pressure : (1.04927 0.0922405 -0.0277365)
        Viscous  : (0.286544 0.000353767 0.000343209)
    Sum of moments
        Total    : (0.000458932 0.00765979 0.0349086)
        Pressure : (0.000468595 0.00781498 0.0331083)
        Viscous  : (-9.66281e-06 -0.00015519 0.00180039)
    writing force and moment files.

Time = 25

smoothSolver:  Solving for Ux, Initial residual = 0.000316861, Final residual = 6.7207e-06, No Iterations 2
smoothSolver:  Solving for Uy, Initial residual = 0.00331617, Final residual = 7.79818e-05, No Iterations 2
smoothSolver:  Solving for Uz, Initial residual = 0.0108314, Final residual = 0.000246214, No Iterations 2
GAMG:  Solving for p, Initial residual = 0.0186273, Final residual = 0.00102848, No Iterations 2
time step continuity errors : sum local = 5.01411e-05, global = -1.55147e-05, cumulative = 5.08317e-05
smoothSolver:  Solving for omega, Initial residual = 8.59986e-05, Final residual = 5.63027e-06, No Iterations 1
smoothSolver:  Solving for k, Initial residual = 0.00572242, Final residual = 0.000305557, No Iterations 1
ExecutionTime = 23.39 s  ClockTime = 24 s

forces forcesFish write:
    Sum of forces
        Total    : (1.36048 0.0642692 -0.0368254)
        Pressure : (1.07555 0.0639328 -0.0371731)
        Viscous  : (0.284931 0.000336468 0.000347733)
    Sum of moments
        Total    : (0.000555264 0.00902779 0.0326317)
        Pressure : (0.000565266 0.00918584 0.0308303)
        Viscous  : (-1.00022e-05 -0.000158049 0.0018014)
    writing force and moment files.

Time = 26

smoothSolver:  Solving for Ux, Initial residual = 0.000292137, Final residual = 2.85898e-05, No Iterations 1
smoothSolver:  Solving for Uy, Initial residual = 0.00316636, Final residual = 6.85968e-05, No Iterations 2
smoothSolver:  Solving for Uz, Initial residual = 0.00993504, Final residual = 0.000197964, No Iterations 2
GAMG:  Solving for p, Initial residual = 0.0174563, Final residual = 0.000914146, No Iterations 2
time step continuity errors : sum local = 4.38484e-05, global = -1.3835e-05, cumulative = 3.69967e-05
smoothSolver:  Solving for omega, Initial residual = 7.64048e-05, Final residual = 5.1168e-06, No Iterations 1
smoothSolver:  Solving for k, Initial residual = 0.00525482, Final residual = 0.000282567, No Iterations 1
ExecutionTime = 24.24 s  ClockTime = 24 s

forces forcesFish write:
    Sum of forces
        Total    : (1.37942 0.0395587 -0.0426207)
        Pressure : (1.09606 0.0392069 -0.0429744)
        Viscous  : (0.283359 0.000351767 0.00035362)
    Sum of moments
        Total    : (0.00063093 0.00963529 0.0303596)
        Pressure : (0.00064123 0.00979644 0.0285534)
        Viscous  : (-1.02993e-05 -0.000161155 0.00180626)
    writing force and moment files.

Time = 27

smoothSolver:  Solving for Ux, Initial residual = 0.000275491, Final residual = 2.63935e-05, No Iterations 1
smoothSolver:  Solving for Uy, Initial residual = 0.00303595, Final residual = 6.41934e-05, No Iterations 2
smoothSolver:  Solving for Uz, Initial residual = 0.00929314, Final residual = 0.000181758, No Iterations 2
GAMG:  Solving for p, Initial residual = 0.0161211, Final residual = 0.000827457, No Iterations 2
time step continuity errors : sum local = 3.9059e-05, global = -1.15323e-05, cumulative = 2.54645e-05
smoothSolver:  Solving for omega, Initial residual = 6.78415e-05, Final residual = 4.65517e-06, No Iterations 1
smoothSolver:  Solving for k, Initial residual = 0.00482181, Final residual = 0.000261072, No Iterations 1
ExecutionTime = 25.08 s  ClockTime = 25 s

forces forcesFish write:
    Sum of forces
        Total    : (1.38794 0.0218816 -0.0443387)
        Pressure : (1.10615 0.0214912 -0.0446976)
        Viscous  : (0.28179 0.000390408 0.000358935)
    Sum of moments
        Total    : (0.000675567 0.00946808 0.0284342)
        Pressure : (0.000686109 0.009632 0.026621)
        Viscous  : (-1.05422e-05 -0.000163911 0.00181315)
    writing force and moment files.

Time = 28

smoothSolver:  Solving for Ux, Initial residual = 0.000259808, Final residual = 2.46044e-05, No Iterations 1
smoothSolver:  Solving for Uy, Initial residual = 0.00287413, Final residual = 6.02231e-05, No Iterations 2
smoothSolver:  Solving for Uz, Initial residual = 0.00864323, Final residual = 0.000173661, No Iterations 2
GAMG:  Solving for p, Initial residual = 0.0149094, Final residual = 0.000774079, No Iterations 2
time step continuity errors : sum local = 3.60619e-05, global = -8.90338e-06, cumulative = 1.65611e-05
smoothSolver:  Solving for omega, Initial residual = 6.01608e-05, Final residual = 4.23845e-06, No Iterations 1
smoothSolver:  Solving for k, Initial residual = 0.00442261, Final residual = 0.000241104, No Iterations 1
ExecutionTime = 25.91 s  ClockTime = 26 s

forces forcesFish write:
    Sum of forces
        Total    : (1.38581 0.0124879 -0.0424575)
        Pressure : (1.10556 0.0120452 -0.0428227)
        Viscous  : (0.280258 0.000442694 0.000365186)
    Sum of moments
        Total    : (0.000687128 0.00868055 0.0270925)
        Pressure : (0.00069786 0.00884735 0.0252712)
        Viscous  : (-1.07314e-05 -0.000166796 0.0018213)
    writing force and moment files.

Time = 29

smoothSolver:  Solving for Ux, Initial residual = 0.000242574, Final residual = 2.28508e-05, No Iterations 1
smoothSolver:  Solving for Uy, Initial residual = 0.00267316, Final residual = 5.4715e-05, No Iterations 2
smoothSolver:  Solving for Uz, Initial residual = 0.00789982, Final residual = 0.000160153, No Iterations 2
GAMG:  Solving for p, Initial residual = 0.0140165, Final residual = 0.000737451, No Iterations 2
time step continuity errors : sum local = 3.40583e-05, global = -6.06009e-06, cumulative = 1.0501e-05
smoothSolver:  Solving for omega, Initial residual = 5.32605e-05, Final residual = 3.86054e-06, No Iterations 1
smoothSolver:  Solving for k, Initial residual = 0.00405224, Final residual = 0.000222457, No Iterations 1
ExecutionTime = 26.73 s  ClockTime = 27 s

forces forcesFish write:
    Sum of forces
        Total    : (1.37553 0.0104119 -0.038133)
        Pressure : (1.09674 0.00991257 -0.0385033)
        Viscous  : (0.27879 0.000499339 0.000370294)
    Sum of moments
        Total    : (0.000671127 0.00753115 0.0263734)
        Pressure : (0.000681996 0.00770025 0.0245434)
        Viscous  : (-1.08687e-05 -0.000169095 0.00183003)
    writing force and moment files.

Time = 30

smoothSolver:  Solving for Ux, Initial residual = 0.00022573, Final residual = 2.11299e-05, No Iterations 1
smoothSolver:  Solving for Uy, Initial residual = 0.00243323, Final residual = 4.80334e-05, No Iterations 2
smoothSolver:  Solving for Uz, Initial residual = 0.00708003, Final residual = 0.000139803, No Iterations 2
GAMG:  Solving for p, Initial residual = 0.0131266, Final residual = 0.000711334, No Iterations 2
time step continuity errors : sum local = 3.27185e-05, global = -2.85741e-06, cumulative = 7.6436e-06
smoothSolver:  Solving for omega, Initial residual = 4.7065e-05, Final residual = 3.51735e-06, No Iterations 1
smoothSolver:  Solving for k, Initial residual = 0.00370568, Final residual = 0.000204906, No Iterations 1
ExecutionTime = 27.57 s  ClockTime = 28 s

forces forcesFish write:
    Sum of forces
        Total    : (1.36061 0.0133004 -0.0326098)
        Pressure : (1.08321 0.0127471 -0.0329837)
        Viscous  : (0.277405 0.000553228 0.000373941)
    Sum of moments
        Total    : (0.000635852 0.00626582 0.0261336)
        Pressure : (0.000646814 0.00643666 0.0242949)
        Viscous  : (-1.09625e-05 -0.000170843 0.00183873)
    writing force and moment files.

Time = 31

smoothSolver:  Solving for Ux, Initial residual = 0.000210845, Final residual = 1.9577e-05, No Iterations 1
smoothSolver:  Solving for Uy, Initial residual = 0.00220727, Final residual = 0.000218549, No Iterations 1
smoothSolver:  Solving for Uz, Initial residual = 0.00627849, Final residual = 0.000611941, No Iterations 1
GAMG:  Solving for p, Initial residual = 0.0119973, Final residual = 0.000661228, No Iterations 2
time step continuity errors : sum local = 3.03883e-05, global = 4.43966e-07, cumulative = 8.08756e-06
smoothSolver:  Solving for omega, Initial residual = 4.14926e-05, Final residual = 3.20381e-06, No Iterations 1
smoothSolver:  Solving for k, Initial residual = 0.00338276, Final residual = 0.000188484, No Iterations 1
ExecutionTime = 28.39 s  ClockTime = 29 s

forces forcesFish write:
    Sum of forces
        Total    : (1.34451 0.0177559 -0.0270318)
        Pressure : (1.0684 0.0171662 -0.027407)
        Viscous  : (0.276109 0.000589707 0.000375195)
    Sum of moments
        Total    : (0.000590975 0.00509779 0.0260253)
        Pressure : (0.000601997 0.00526963 0.0241815)
        Viscous  : (-1.10222e-05 -0.000171833 0.00184378)
    writing force and moment files.

Time = 32

smoothSolver:  Solving for Ux, Initial residual = 0.000198166, Final residual = 1.82325e-05, No Iterations 1
smoothSolver:  Solving for Uy, Initial residual = 0.0020417, Final residual = 0.000201544, No Iterations 1
smoothSolver:  Solving for Uz, Initial residual = 0.00565644, Final residual = 0.000527537, No Iterations 1
GAMG:  Solving for p, Initial residual = 0.0110186, Final residual = 0.000604008, No Iterations 2
time step continuity errors : sum local = 2.77744e-05, global = 3.27551e-06, cumulative = 1.13631e-05
smoothSolver:  Solving for omega, Initial residual = 3.65196e-05, Final residual = 2.92322e-06, No Iterations 1
smoothSolver:  Solving for k, Initial residual = 0.00307957, Final residual = 0.000173013, No Iterations 1
ExecutionTime = 29.21 s  ClockTime = 29 s

forces forcesFish write:
    Sum of forces
        Total    : (1.32984 0.0221316 -0.0220239)
        Pressure : (1.05493 0.0215092 -0.022399)
        Viscous  : (0.274902 0.000622415 0.000375124)
    Sum of moments
        Total    : (0.000542603 0.00413815 0.025932)
        Pressure : (0.000553673 0.00431054 0.0240831)
        Viscous  : (-1.10701e-05 -0.000172391 0.0018489)
    writing force and moment files.

Time = 33

smoothSolver:  Solving for Ux, Initial residual = 0.000188339, Final residual = 1.71232e-05, No Iterations 1
smoothSolver:  Solving for Uy, Initial residual = 0.00189975, Final residual = 0.00018738, No Iterations 1
smoothSolver:  Solving for Uz, Initial residual = 0.00511402, Final residual = 0.000458772, No Iterations 1
GAMG:  Solving for p, Initial residual = 0.0102357, Final residual = 0.000535394, No Iterations 2
time step continuity errors : sum local = 2.46529e-05, global = 5.30171e-06, cumulative = 1.66648e-05
smoothSolver:  Solving for omega, Initial residual = 3.20861e-05, Final residual = 2.67311e-06, No Iterations 1
smoothSolver:  Solving for k, Initial residual = 0.00279473, Final residual = 0.000158445, No Iterations 1
ExecutionTime = 30.01 s  ClockTime = 30 s

forces forcesFish write:
    Sum of forces
        Total    : (1.31825 0.0252079 -0.01798)
        Pressure : (1.04448 0.0245558 -0.018354)
        Viscous  : (0.273776 0.000652103 0.000373978)
    Sum of moments
        Total    : (0.000495791 0.00344967 0.0257469)
        Pressure : (0.000506899 0.0036223 0.023893)
        Viscous  : (-1.11084e-05 -0.00017263 0.0018539)
    writing force and moment files.

Time = 34

smoothSolver:  Solving for Ux, Initial residual = 0.000177229, Final residual = 1.60956e-05, No Iterations 1
smoothSolver:  Solving for Uy, Initial residual = 0.00178121, Final residual = 0.00017448, No Iterations 1
smoothSolver:  Solving for Uz, Initial residual = 0.00467939, Final residual = 0.000410877, No Iterations 1
GAMG:  Solving for p, Initial residual = 0.00951289, Final residual = 0.000455502, No Iterations 2
time step continuity errors : sum local = 2.10093e-05, global = 5.96939e-06, cumulative = 2.26342e-05
smoothSolver:  Solving for omega, Initial residual = 2.81428e-05, Final residual = 2.44825e-06, No Iterations 1
smoothSolver:  Solving for k, Initial residual = 0.00252799, Final residual = 0.000144792, No Iterations 1
ExecutionTime = 30.82 s  ClockTime = 31 s

forces forcesFish write:
    Sum of forces
        Total    : (1.3105 0.0262106 -0.015127)
        Pressure : (1.03777 0.0255304 -0.0154993)
        Viscous  : (0.272724 0.000680213 0.000372309)
    Sum of moments
        Total    : (0.00045472 0.00306156 0.0253798)
        Pressure : (0.000465862 0.00323419 0.023521)
        Viscous  : (-1.11427e-05 -0.000172634 0.00185881)
    writing force and moment files.

Time = 35

smoothSolver:  Solving for Ux, Initial residual = 0.000161043, Final residual = 1.49941e-05, No Iterations 1
smoothSolver:  Solving for Uy, Initial residual = 0.00168244, Final residual = 0.000162363, No Iterations 1
smoothSolver:  Solving for Uz, Initial residual = 0.00434648, Final residual = 0.00037622, No Iterations 1
GAMG:  Solving for p, Initial residual = 0.00881913, Final residual = 0.000392555, No Iterations 2
time step continuity errors : sum local = 1.81415e-05, global = 5.20342e-06, cumulative = 2.78376e-05
smoothSolver:  Solving for omega, Initial residual = 2.46406e-05, Final residual = 2.24458e-06, No Iterations 1
smoothSolver:  Solving for k, Initial residual = 0.00227697, Final residual = 0.000131942, No Iterations 1
ExecutionTime = 31.62 s  ClockTime = 32 s

forces forcesFish write:
    Sum of forces
        Total    : (1.30648 0.0247644 -0.0136647)
        Pressure : (1.03475 0.0240566 -0.0140349)
        Viscous  : (0.271738 0.000707798 0.0003702)
    Sum of moments
        Total    : (0.000423765 0.00299237 0.0247716)
        Pressure : (0.000434939 0.00316479 0.0229082)
        Viscous  : (-1.11742e-05 -0.000172425 0.00186345)
    writing force and moment files.

Time = 36

smoothSolver:  Solving for Ux, Initial residual = 0.000141147, Final residual = 1.37436e-05, No Iterations 1
smoothSolver:  Solving for Uy, Initial residual = 0.00159183, Final residual = 0.000150809, No Iterations 1
smoothSolver:  Solving for Uz, Initial residual = 0.0040687, Final residual = 0.000347742, No Iterations 1
GAMG:  Solving for p, Initial residual = 0.00816105, Final residual = 0.000359553, No Iterations 2
time step continuity errors : sum local = 1.66538e-05, global = 4.15712e-06, cumulative = 3.19947e-05
smoothSolver:  Solving for omega, Initial residual = 2.15345e-05, Final residual = 2.06e-06, No Iterations 1
smoothSolver:  Solving for k, Initial residual = 0.00204184, Final residual = 0.00011992, No Iterations 1
ExecutionTime = 32.43 s  ClockTime = 33 s

forces forcesFish write:
    Sum of forces
        Total    : (1.30538 0.021056 -0.0136983)
        Pressure : (1.03457 0.0203199 -0.014066)
        Viscous  : (0.270808 0.000736162 0.000367733)
    Sum of moments
        Total    : (0.000406777 0.00322866 0.0239439)
        Pressure : (0.000417981 0.00340069 0.022076)
        Viscous  : (-1.12038e-05 -0.000172025 0.00186793)
    writing force and moment files.

Time = 37

smoothSolver:  Solving for Ux, Initial residual = 0.000127917, Final residual = 1.27307e-05, No Iterations 1
smoothSolver:  Solving for Uy, Initial residual = 0.00150021, Final residual = 0.000141262, No Iterations 1
smoothSolver:  Solving for Uz, Initial residual = 0.00382265, Final residual = 0.000321032, No Iterations 1
GAMG:  Solving for p, Initial residual = 0.00753172, Final residual = 0.000322111, No Iterations 2
time step continuity errors : sum local = 1.49501e-05, global = 3.80536e-06, cumulative = 3.58001e-05
smoothSolver:  Solving for omega, Initial residual = 1.8797e-05, Final residual = 3.79129e-07, No Iterations 2
smoothSolver:  Solving for k, Initial residual = 0.0018225, Final residual = 0.000108766, No Iterations 1
ExecutionTime = 33.26 s  ClockTime = 34 s

forces forcesFish write:
    Sum of forces
        Total    : (1.306 0.0159036 -0.0149483)
        Pressure : (1.03607 0.0151375 -0.0153136)
        Viscous  : (0.269928 0.00076612 0.000365253)
    Sum of moments
        Total    : (0.000403776 0.00367985 0.023003)
        Pressure : (0.000415008 0.0038514 0.0211307)
        Viscous  : (-1.12321e-05 -0.000171557 0.00187233)
    writing force and moment files.

Time = 38

smoothSolver:  Solving for Ux, Initial residual = 0.000121579, Final residual = 1.20988e-05, No Iterations 1
smoothSolver:  Solving for Uy, Initial residual = 0.0014033, Final residual = 0.000131794, No Iterations 1
smoothSolver:  Solving for Uz, Initial residual = 0.00358159, Final residual = 0.000298368, No Iterations 1
GAMG:  Solving for p, Initial residual = 0.00691839, Final residual = 0.000283602, No Iterations 2
time step continuity errors : sum local = 1.31794e-05, global = 3.68176e-06, cumulative = 3.94818e-05
smoothSolver:  Solving for omega, Initial residual = 1.6072e-05, Final residual = 3.43862e-07, No Iterations 2
smoothSolver:  Solving for k, Initial residual = 0.00161875, Final residual = 9.8436e-05, No Iterations 1
ExecutionTime = 34.09 s  ClockTime = 34 s

forces forcesFish write:
    Sum of forces
        Total    : (1.30727 0.0103416 -0.0168474)
        Pressure : (1.03817 0.009544 -0.0172103)
        Viscous  : (0.269096 0.000797564 0.000362845)
    Sum of moments
        Total    : (0.000411125 0.00421441 0.0220698)
        Pressure : (0.000422381 0.00438542 0.0201932)
        Viscous  : (-1.12557e-05 -0.000171011 0.0018766)
    writing force and moment files.

Time = 39

smoothSolver:  Solving for Ux, Initial residual = 0.000116831, Final residual = 1.1578e-05, No Iterations 1
smoothSolver:  Solving for Uy, Initial residual = 0.00129903, Final residual = 0.000122813, No Iterations 1
smoothSolver:  Solving for Uz, Initial residual = 0.00332816, Final residual = 0.00027752, No Iterations 1
GAMG:  Solving for p, Initial residual = 0.00636512, Final residual = 0.000263961, No Iterations 2
time step continuity errors : sum local = 1.22708e-05, global = 3.06696e-06, cumulative = 4.25488e-05
smoothSolver:  Solving for omega, Initial residual = 1.37608e-05, Final residual = 3.10475e-07, No Iterations 2
smoothSolver:  Solving for k, Initial residual = 0.00143067, Final residual = 8.88949e-05, No Iterations 1
ExecutionTime = 34.93 s  ClockTime = 35 s

forces forcesFish write:
    Sum of forces
        Total    : (1.30846 0.00512976 -0.0188836)
        Pressure : (1.04015 0.00430005 -0.0192442)
        Viscous  : (0.268308 0.000829717 0.000360582)
    Sum of moments
        Total    : (0.00042452 0.0047285 0.0212145)
        Pressure : (0.000435794 0.00489892 0.0193339)
        Viscous  : (-1.12742e-05 -0.000170427 0.00188058)
    writing force and moment files.

Time = 40

smoothSolver:  Solving for Ux, Initial residual = 0.000113179, Final residual = 1.11187e-05, No Iterations 1
smoothSolver:  Solving for Uy, Initial residual = 0.00119923, Final residual = 0.000114527, No Iterations 1
smoothSolver:  Solving for Uz, Initial residual = 0.00306567, Final residual = 0.000257279, No Iterations 1
GAMG:  Solving for p, Initial residual = 0.00587076, Final residual = 0.000258778, No Iterations 2
time step continuity errors : sum local = 1.20264e-05, global = 1.93717e-06, cumulative = 4.4486e-05
smoothSolver:  Solving for omega, Initial residual = 1.18003e-05, Final residual = 2.80729e-07, No Iterations 2
smoothSolver:  Solving for k, Initial residual = 0.00125842, Final residual = 8.01466e-05, No Iterations 1
ExecutionTime = 35.74 s  ClockTime = 36 s

forces forcesFish write:
    Sum of forces
        Total    : (1.30916 0.000609926 -0.02076)
        Pressure : (1.04159 -0.000251503 -0.0211185)
        Viscous  : (0.267563 0.000861429 0.000358477)
    Sum of moments
        Total    : (0.000440794 0.00516854 0.0204488)
        Pressure : (0.00045208 0.00533836 0.0185647)
        Viscous  : (-1.12866e-05 -0.000169825 0.00188409)
    writing force and moment files.

Time = 41

smoothSolver:  Solving for Ux, Initial residual = 0.000109436, Final residual = 1.06708e-05, No Iterations 1
smoothSolver:  Solving for Uy, Initial residual = 0.00111391, Final residual = 0.00010742, No Iterations 1
smoothSolver:  Solving for Uz, Initial residual = 0.00281751, Final residual = 0.000238796, No Iterations 1
GAMG:  Solving for p, Initial residual = 0.00542219, Final residual = 0.000257348, No Iterations 2
time step continuity errors : sum local = 1.19537e-05, global = 7.2679e-07, cumulative = 4.52128e-05
smoothSolver:  Solving for omega, Initial residual = 1.01442e-05, Final residual = 2.54566e-07, No Iterations 2
smoothSolver:  Solving for k, Initial residual = 0.00110159, Final residual = 7.21565e-05, No Iterations 1
ExecutionTime = 36.58 s  ClockTime = 37 s

forces forcesFish write:
    Sum of forces
        Total    : (1.30915 -0.00310919 -0.0223235)
        Pressure : (1.04229 -0.00400065 -0.0226801)
        Viscous  : (0.266862 0.00089146 0.000356584)
    Sum of moments
        Total    : (0.00045763 0.00550988 0.0197652)
        Pressure : (0.000468923 0.00567909 0.0178782)
        Viscous  : (-1.1293e-05 -0.000169214 0.00188705)
    writing force and moment files.

Time = 42

smoothSolver:  Solving for Ux, Initial residual = 0.000104128, Final residual = 1.01623e-05, No Iterations 1
smoothSolver:  Solving for Uy, Initial residual = 0.00104823, Final residual = 0.000101913, No Iterations 1
smoothSolver:  Solving for Uz, Initial residual = 0.00261527, Final residual = 0.000223871, No Iterations 1
GAMG:  Solving for p, Initial residual = 0.00500927, Final residual = 0.000248922, No Iterations 2
time step continuity errors : sum local = 1.15564e-05, global = -3.26437e-07, cumulative = 4.48863e-05
smoothSolver:  Solving for omega, Initial residual = 8.75093e-06, Final residual = 2.31702e-07, No Iterations 2
smoothSolver:  Solving for k, Initial residual = 0.000959675, Final residual = 6.4879e-05, No Iterations 1
ExecutionTime = 37.42 s  ClockTime = 38 s

forces forcesFish write:
    Sum of forces
        Total    : (1.30842 -0.00607364 -0.023506)
        Pressure : (1.04221 -0.00699228 -0.0238608)
        Viscous  : (0.266204 0.000918638 0.000354784)
    Sum of moments
        Total    : (0.000473253 0.00574442 0.019147)
        Pressure : (0.000484545 0.00591302 0.0172577)
        Viscous  : (-1.12917e-05 -0.000168603 0.00188937)
    writing force and moment files.

Time = 43

smoothSolver:  Solving for Ux, Initial residual = 9.75665e-05, Final residual = 9.61339e-06, No Iterations 1
smoothSolver:  Solving for Uy, Initial residual = 0.00100119, Final residual = 9.7691e-05, No Iterations 1
smoothSolver:  Solving for Uz, Initial residual = 0.00247203, Final residual = 0.000212884, No Iterations 1
GAMG:  Solving for p, Initial residual = 0.00464251, Final residual = 0.000232909, No Iterations 2
time step continuity errors : sum local = 1.08097e-05, global = -9.93979e-07, cumulative = 4.38923e-05
smoothSolver:  Solving for omega, Initial residual = 7.58753e-06, Final residual = 2.11546e-07, No Iterations 2
smoothSolver:  Solving for k, Initial residual = 0.000832728, Final residual = 5.83102e-05, No Iterations 1
ExecutionTime = 38.22 s  ClockTime = 38 s

forces forcesFish write:
    Sum of forces
        Total    : (1.3071 -0.0083546 -0.0242646)
        Pressure : (1.0415 -0.00929652 -0.0246176)
        Viscous  : (0.265591 0.000941928 0.000352957)
    Sum of moments
        Total    : (0.000486011 0.00586963 0.0185878)
        Pressure : (0.000497294 0.00603759 0.0166969)
        Viscous  : (-1.12825e-05 -0.000167952 0.00189089)
    writing force and moment files.

Time = 44

smoothSolver:  Solving for Ux, Initial residual = 9.01564e-05, Final residual = 1.89294e-06, No Iterations 2
smoothSolver:  Solving for Uy, Initial residual = 0.00096364, Final residual = 9.41821e-05, No Iterations 1
smoothSolver:  Solving for Uz, Initial residual = 0.00233977, Final residual = 0.000202824, No Iterations 1
GAMG:  Solving for p, Initial residual = 0.00432152, Final residual = 0.000214142, No Iterations 2
time step continuity errors : sum local = 9.93686e-06, global = -1.26863e-06, cumulative = 4.26237e-05
smoothSolver:  Solving for omega, Initial residual = 6.64433e-06, Final residual = 1.95062e-07, No Iterations 2
smoothSolver:  Solving for k, Initial residual = 0.000720035, Final residual = 5.2401e-05, No Iterations 1
ExecutionTime = 39.07 s  ClockTime = 39 s

forces forcesFish write:
    Sum of forces
        Total    : (1.30475 -0.010288 -0.024597)
        Pressure : (1.03974 -0.0112488 -0.0249481)
        Viscous  : (0.265004 0.000960824 0.000351099)
    Sum of moments
        Total    : (0.000494639 0.00589354 0.0180086)
        Pressure : (0.000505906 0.00606079 0.0161179)
        Viscous  : (-1.12672e-05 -0.000167256 0.0018907)
    writing force and moment files.

Time = 45

smoothSolver:  Solving for Ux, Initial residual = 8.137e-05, Final residual = 1.76241e-06, No Iterations 2
smoothSolver:  Solving for Uy, Initial residual = 0.00092872, Final residual = 9.17281e-05, No Iterations 1
smoothSolver:  Solving for Uz, Initial residual = 0.0022163, Final residual = 0.000193599, No Iterations 1
GAMG:  Solving for p, Initial residual = 0.00403294, Final residual = 0.000190858, No Iterations 2
time step continuity errors : sum local = 8.85316e-06, global = -1.49864e-06, cumulative = 4.11251e-05
smoothSolver:  Solving for omega, Initial residual = 5.85851e-06, Final residual = 1.80543e-07, No Iterations 2
smoothSolver:  Solving for k, Initial residual = 0.000620651, Final residual = 4.70971e-05, No Iterations 1
ExecutionTime = 39.97 s  ClockTime = 40 s

forces forcesFish write:
    Sum of forces
        Total    : (1.30189 -0.0118574 -0.0245542)
        Pressure : (1.03742 -0.0128333 -0.0249033)
        Viscous  : (0.264468 0.000975955 0.000349154)
    Sum of moments
        Total    : (0.000498671 0.00583503 0.0174516)
        Pressure : (0.000509917 0.00600154 0.0155616)
        Viscous  : (-1.12467e-05 -0.000166508 0.00188996)
    writing force and moment files.

Time = 46

smoothSolver:  Solving for Ux, Initial residual = 7.40932e-05, Final residual = 1.64539e-06, No Iterations 2
smoothSolver:  Solving for Uy, Initial residual = 0.000893977, Final residual = 1.91755e-05, No Iterations 2
smoothSolver:  Solving for Uz, Initial residual = 0.00209409, Final residual = 0.000184407, No Iterations 1
GAMG:  Solving for p, Initial residual = 0.00377551, Final residual = 0.000166029, No Iterations 2
time step continuity errors : sum local = 7.69753e-06, global = -1.69099e-06, cumulative = 3.94341e-05
smoothSolver:  Solving for omega, Initial residual = 5.21204e-06, Final residual = 1.68045e-07, No Iterations 2
smoothSolver:  Solving for k, Initial residual = 0.000533679, Final residual = 4.23479e-05, No Iterations 1
ExecutionTime = 40.8 s  ClockTime = 41 s

forces forcesFish write:
    Sum of forces
        Total    : (1.29916 -0.0129783 -0.0242231)
        Pressure : (1.03518 -0.0139689 -0.0245702)
        Viscous  : (0.26398 0.000990617 0.000347121)
    Sum of moments
        Total    : (0.000498415 0.00571765 0.0170022)
        Pressure : (0.00050963 0.00588337 0.0151117)
        Viscous  : (-1.12147e-05 -0.000165716 0.00189053)
    writing force and moment files.

Time = 47

smoothSolver:  Solving for Ux, Initial residual = 7.10875e-05, Final residual = 1.54551e-06, No Iterations 2
smoothSolver:  Solving for Uy, Initial residual = 0.000852259, Final residual = 1.84489e-05, No Iterations 2
smoothSolver:  Solving for Uz, Initial residual = 0.00197059, Final residual = 0.000175478, No Iterations 1
GAMG:  Solving for p, Initial residual = 0.00352593, Final residual = 0.000142559, No Iterations 2
time step continuity errors : sum local = 6.60547e-06, global = -1.71607e-06, cumulative = 3.7718e-05
smoothSolver:  Solving for omega, Initial residual = 4.67321e-06, Final residual = 1.57288e-07, No Iterations 2
smoothSolver:  Solving for k, Initial residual = 0.000458296, Final residual = 3.81126e-05, No Iterations 1
ExecutionTime = 41.65 s  ClockTime = 42 s

forces forcesFish write:
    Sum of forces
        Total    : (1.29678 -0.0139651 -0.0237377)
        Pressure : (1.03324 -0.0149647 -0.0240827)
        Viscous  : (0.263536 0.000999549 0.00034497)
    Sum of moments
        Total    : (0.000494864 0.00557463 0.0166042)
        Pressure : (0.000506044 0.00573952 0.0147142)
        Viscous  : (-1.11797e-05 -0.000164891 0.00189004)
    writing force and moment files.

Time = 48

smoothSolver:  Solving for Ux, Initial residual = 6.95022e-05, Final residual = 6.88934e-06, No Iterations 1
smoothSolver:  Solving for Uy, Initial residual = 0.000816719, Final residual = 1.77173e-05, No Iterations 2
smoothSolver:  Solving for Uz, Initial residual = 0.0018464, Final residual = 0.00016688, No Iterations 1
GAMG:  Solving for p, Initial residual = 0.00328074, Final residual = 0.000126214, No Iterations 2
time step continuity errors : sum local = 5.84383e-06, global = -1.58103e-06, cumulative = 3.6137e-05
smoothSolver:  Solving for omega, Initial residual = 4.20589e-06, Final residual = 1.47115e-07, No Iterations 2
smoothSolver:  Solving for k, Initial residual = 0.000393402, Final residual = 3.43394e-05, No Iterations 1
ExecutionTime = 42.49 s  ClockTime = 43 s

forces forcesFish write:
    Sum of forces
        Total    : (1.2954 -0.0149377 -0.0232065)
        Pressure : (1.03226 -0.0159411 -0.0235491)
        Viscous  : (0.263139 0.00100333 0.000342677)
    Sum of moments
        Total    : (0.000489079 0.00543111 0.0162584)
        Pressure : (0.000500222 0.00559512 0.0143693)
        Viscous  : (-1.11422e-05 -0.00016401 0.00188918)
    writing force and moment files.

Time = 49

smoothSolver:  Solving for Ux, Initial residual = 6.75867e-05, Final residual = 6.64222e-06, No Iterations 1
smoothSolver:  Solving for Uy, Initial residual = 0.000786103, Final residual = 1.68242e-05, No Iterations 2
smoothSolver:  Solving for Uz, Initial residual = 0.00172697, Final residual = 0.000157793, No Iterations 1
GAMG:  Solving for p, Initial residual = 0.00306177, Final residual = 0.000119998, No Iterations 2
time step continuity errors : sum local = 5.55151e-06, global = -1.44041e-06, cumulative = 3.46966e-05
smoothSolver:  Solving for omega, Initial residual = 3.82076e-06, Final residual = 1.38555e-07, No Iterations 2
smoothSolver:  Solving for k, Initial residual = 0.000337837, Final residual = 3.0976e-05, No Iterations 1
ExecutionTime = 43.32 s  ClockTime = 44 s

forces forcesFish write:
    Sum of forces
        Total    : (1.29479 -0.016159 -0.0227083)
        Pressure : (1.03201 -0.0171613 -0.0230486)
        Viscous  : (0.262773 0.00100229 0.000340303)
    Sum of moments
        Total    : (0.000482134 0.00530558 0.0158905)
        Pressure : (0.000493238 0.0054687 0.0140032)
        Viscous  : (-1.11045e-05 -0.00016312 0.00188726)
    writing force and moment files.

Time = 50

smoothSolver:  Solving for Ux, Initial residual = 6.40291e-05, Final residual = 6.32481e-06, No Iterations 1
smoothSolver:  Solving for Uy, Initial residual = 0.000757688, Final residual = 7.52553e-05, No Iterations 1
smoothSolver:  Solving for Uz, Initial residual = 0.0016368, Final residual = 0.000149905, No Iterations 1
GAMG:  Solving for p, Initial residual = 0.00285926, Final residual = 0.000113762, No Iterations 2
time step continuity errors : sum local = 5.25795e-06, global = -1.32791e-06, cumulative = 3.33687e-05
smoothSolver:  Solving for omega, Initial residual = 3.49518e-06, Final residual = 1.30805e-07, No Iterations 2
smoothSolver:  Solving for k, Initial residual = 0.000290407, Final residual = 2.79681e-05, No Iterations 1
ExecutionTime = 44.11 s  ClockTime = 44 s

forces forcesFish write:
    Sum of forces
        Total    : (1.29445 -0.0177219 -0.0223172)
        Pressure : (1.03201 -0.0187187 -0.0226551)
        Viscous  : (0.262434 0.000996837 0.000337832)
    Sum of moments
        Total    : (0.000475296 0.00521557 0.015438)
        Pressure : (0.000486372 0.00537778 0.0135546)
        Viscous  : (-1.10753e-05 -0.000162209 0.00188338)
    writing force and moment files.

Time = 51

smoothSolver:  Solving for Ux, Initial residual = 5.94526e-05, Final residual = 1.28197e-06, No Iterations 2
smoothSolver:  Solving for Uy, Initial residual = 0.000734947, Final residual = 7.29072e-05, No Iterations 1
smoothSolver:  Solving for Uz, Initial residual = 0.00156307, Final residual = 0.000142228, No Iterations 1
GAMG:  Solving for p, Initial residual = 0.00268511, Final residual = 0.000110467, No Iterations 2
time step continuity errors : sum local = 5.10042e-06, global = -1.07908e-06, cumulative = 3.22896e-05
smoothSolver:  Solving for omega, Initial residual = 3.23513e-06, Final residual = 1.24401e-07, No Iterations 2
smoothSolver:  Solving for k, Initial residual = 0.000250154, Final residual = 5.25949e-06, No Iterations 2
ExecutionTime = 44.93 s  ClockTime = 45 s

forces forcesFish write:
    Sum of forces
        Total    : (1.2936 -0.0195751 -0.0220623)
        Pressure : (1.03154 -0.0205628 -0.0223978)
        Viscous  : (0.262057 0.00098763 0.000335427)
    Sum of moments
        Total    : (0.000469581 0.00516581 0.0148921)
        Pressure : (0.000480623 0.00532713 0.0130147)
        Viscous  : (-1.1042e-05 -0.000161318 0.00187737)
    writing force and moment files.

Time = 52

smoothSolver:  Solving for Ux, Initial residual = 5.51012e-05, Final residual = 1.203e-06, No Iterations 2
smoothSolver:  Solving for Uy, Initial residual = 0.000710009, Final residual = 7.08612e-05, No Iterations 1
smoothSolver:  Solving for Uz, Initial residual = 0.00148594, Final residual = 0.000135151, No Iterations 1
GAMG:  Solving for p, Initial residual = 0.00252108, Final residual = 0.000108296, No Iterations 2
time step continuity errors : sum local = 4.99515e-06, global = -6.51319e-07, cumulative = 3.16383e-05
smoothSolver:  Solving for omega, Initial residual = 3.13596e-06, Final residual = 1.21601e-07, No Iterations 2
smoothSolver:  Solving for k, Initial residual = 0.000214671, Final residual = 4.76532e-06, No Iterations 2
ExecutionTime = 45.74 s  ClockTime = 46 s

forces forcesFish write:
    Sum of forces
        Total    : (1.29238 -0.0214358 -0.0219447)
        Pressure : (1.03067 -0.0224134 -0.0222777)
        Viscous  : (0.261715 0.000977554 0.000333055)
    Sum of moments
        Total    : (0.000465476 0.00515222 0.0143336)
        Pressure : (0.000476483 0.00531267 0.0124622)
        Viscous  : (-1.10077e-05 -0.000160453 0.00187148)
    writing force and moment files.

Time = 53

smoothSolver:  Solving for Ux, Initial residual = 5.16515e-05, Final residual = 1.13259e-06, No Iterations 2
smoothSolver:  Solving for Uy, Initial residual = 0.000681753, Final residual = 1.45388e-05, No Iterations 2
smoothSolver:  Solving for Uz, Initial residual = 0.00140638, Final residual = 0.000128642, No Iterations 1
GAMG:  Solving for p, Initial residual = 0.00236869, Final residual = 0.00010713, No Iterations 2
time step continuity errors : sum local = 4.93732e-06, global = -1.69733e-07, cumulative = 3.14685e-05
smoothSolver:  Solving for omega, Initial residual = 3.0012e-06, Final residual = 1.18384e-07, No Iterations 2
smoothSolver:  Solving for k, Initial residual = 0.000184733, Final residual = 4.29424e-06, No Iterations 2
ExecutionTime = 46.59 s  ClockTime = 47 s

forces forcesFish write:
    Sum of forces
        Total    : (1.29109 -0.0231524 -0.0219256)
        Pressure : (1.02968 -0.024119 -0.0222562)
        Viscous  : (0.261409 0.0009666 0.000330654)
    Sum of moments
        Total    : (0.000462869 0.00516158 0.0138276)
        Pressure : (0.000473837 0.00532116 0.0119611)
        Viscous  : (-1.09673e-05 -0.000159582 0.00186654)
    writing force and moment files.

Time = 54

smoothSolver:  Solving for Ux, Initial residual = 4.92816e-05, Final residual = 4.90332e-06, No Iterations 1
smoothSolver:  Solving for Uy, Initial residual = 0.000649391, Final residual = 1.39061e-05, No Iterations 2
smoothSolver:  Solving for Uz, Initial residual = 0.00133294, Final residual = 0.000123627, No Iterations 1
GAMG:  Solving for p, Initial residual = 0.0022189, Final residual = 0.00010156, No Iterations 2
time step continuity errors : sum local = 4.67772e-06, global = 2.40149e-07, cumulative = 3.17087e-05
smoothSolver:  Solving for omega, Initial residual = 2.84176e-06, Final residual = 1.14252e-07, No Iterations 2
smoothSolver:  Solving for k, Initial residual = 0.00015947, Final residual = 3.86217e-06, No Iterations 2
ExecutionTime = 47.44 s  ClockTime = 48 s

forces forcesFish write:
    Sum of forces
        Total    : (1.29015 -0.0246728 -0.0219753)
        Pressure : (1.02902 -0.0256274 -0.0223037)
        Viscous  : (0.26113 0.000954542 0.000328409)
    Sum of moments
        Total    : (0.000461376 0.00518511 0.0133938)
        Pressure : (0.000472306 0.00534389 0.0115319)
        Viscous  : (-1.09307e-05 -0.000158771 0.00186189)
    writing force and moment files.

Time = 55

smoothSolver:  Solving for Ux, Initial residual = 4.81949e-05, Final residual = 4.74602e-06, No Iterations 1
smoothSolver:  Solving for Uy, Initial residual = 0.000620341, Final residual = 1.32166e-05, No Iterations 2
smoothSolver:  Solving for Uz, Initial residual = 0.0012634, Final residual = 0.000118754, No Iterations 1
GAMG:  Solving for p, Initial residual = 0.0020779, Final residual = 9.22234e-05, No Iterations 2
time step continuity errors : sum local = 4.24604e-06, global = 6.32005e-07, cumulative = 3.23407e-05
smoothSolver:  Solving for omega, Initial residual = 2.68308e-06, Final residual = 1.09879e-07, No Iterations 2
smoothSolver:  Solving for k, Initial residual = 0.000138116, Final residual = 3.46928e-06, No Iterations 2
ExecutionTime = 48.3 s  ClockTime = 49 s

forces forcesFish write:
    Sum of forces
        Total    : (1.28943 -0.0260827 -0.0220566)
        Pressure : (1.02856 -0.027024 -0.0223829)
        Viscous  : (0.260878 0.000941293 0.000326257)
    Sum of moments
        Total    : (0.000460613 0.0052135 0.0129933)
        Pressure : (0.00047151 0.00537149 0.0111362)
        Viscous  : (-1.08975e-05 -0.000157983 0.00185703)
    writing force and moment files.

Time = 56

smoothSolver:  Solving for Ux, Initial residual = 4.7583e-05, Final residual = 4.60098e-06, No Iterations 1
smoothSolver:  Solving for Uy, Initial residual = 0.000595163, Final residual = 1.25193e-05, No Iterations 2
smoothSolver:  Solving for Uz, Initial residual = 0.00120166, Final residual = 0.000114121, No Iterations 1
GAMG:  Solving for p, Initial residual = 0.00194687, Final residual = 8.00092e-05, No Iterations 2
time step continuity errors : sum local = 3.68284e-06, global = 8.78236e-07, cumulative = 3.32189e-05
smoothSolver:  Solving for omega, Initial residual = 2.52887e-06, Final residual = 1.05252e-07, No Iterations 2
smoothSolver:  Solving for k, Initial residual = 0.000120045, Final residual = 3.11279e-06, No Iterations 2
ExecutionTime = 49.16 s  ClockTime = 49 s

forces forcesFish write:
    Sum of forces
        Total    : (1.28883 -0.0274559 -0.0221428)
        Pressure : (1.02818 -0.0283828 -0.0224671)
        Viscous  : (0.260651 0.000926901 0.000324318)
    Sum of moments
        Total    : (0.000460281 0.00524024 0.0125934)
        Pressure : (0.000471149 0.00539751 0.0107415)
        Viscous  : (-1.08683e-05 -0.000157265 0.00185194)
    writing force and moment files.

Time = 57

smoothSolver:  Solving for Ux, Initial residual = 4.64434e-05, Final residual = 4.43298e-06, No Iterations 1
smoothSolver:  Solving for Uy, Initial residual = 0.000573949, Final residual = 5.67417e-05, No Iterations 1
smoothSolver:  Solving for Uz, Initial residual = 0.00115401, Final residual = 0.000110067, No Iterations 1
GAMG:  Solving for p, Initial residual = 0.00182304, Final residual = 6.90837e-05, No Iterations 2
time step continuity errors : sum local = 3.17981e-06, global = 9.79444e-07, cumulative = 3.41984e-05
smoothSolver:  Solving for omega, Initial residual = 2.37564e-06, Final residual = 1.00292e-07, No Iterations 2
smoothSolver:  Solving for k, Initial residual = 0.00010475, Final residual = 2.78995e-06, No Iterations 2
ExecutionTime = 49.99 s  ClockTime = 50 s

forces forcesFish write:
    Sum of forces
        Total    : (1.28819 -0.0288249 -0.0222202)
        Pressure : (1.02774 -0.0297373 -0.0225427)
        Viscous  : (0.260448 0.000912453 0.000322582)
    Sum of moments
        Total    : (0.000460253 0.00526269 0.0121628)
        Pressure : (0.000471099 0.00541931 0.0103165)
        Viscous  : (-1.08462e-05 -0.000156618 0.0018463)
    writing force and moment files.

Time = 58

smoothSolver:  Solving for Ux, Initial residual = 4.43291e-05, Final residual = 4.22242e-06, No Iterations 1
smoothSolver:  Solving for Uy, Initial residual = 0.000559156, Final residual = 5.52299e-05, No Iterations 1
smoothSolver:  Solving for Uz, Initial residual = 0.00112243, Final residual = 0.000106423, No Iterations 1
GAMG:  Solving for p, Initial residual = 0.00171146, Final residual = 6.92349e-05, No Iterations 2
time step continuity errors : sum local = 3.18741e-06, global = 8.25825e-07, cumulative = 3.50242e-05
smoothSolver:  Solving for omega, Initial residual = 2.22944e-06, Final residual = 9.51642e-08, No Iterations 2
smoothSolver:  Solving for k, Initial residual = 9.17363e-05, Final residual = 2.4983e-06, No Iterations 2
ExecutionTime = 50.82 s  ClockTime = 51 s

forces forcesFish write:
    Sum of forces
        Total    : (1.28751 -0.0302265 -0.0222774)
        Pressure : (1.02724 -0.0311236 -0.0225984)
        Viscous  : (0.260267 0.000897105 0.000321006)
    Sum of moments
        Total    : (0.000460376 0.00527772 0.0116976)
        Pressure : (0.000471202 0.00543374 0.00985703)
        Viscous  : (-1.08258e-05 -0.000156023 0.00184062)
    writing force and moment files.

Time = 59

smoothSolver:  Solving for Ux, Initial residual = 4.10227e-05, Final residual = 3.95712e-06, No Iterations 1
smoothSolver:  Solving for Uy, Initial residual = 0.000545653, Final residual = 5.39309e-05, No Iterations 1
smoothSolver:  Solving for Uz, Initial residual = 0.00108905, Final residual = 0.0001026, No Iterations 1
GAMG:  Solving for p, Initial residual = 0.00161056, Final residual = 6.96371e-05, No Iterations 2
time step continuity errors : sum local = 3.20781e-06, global = 6.05639e-07, cumulative = 3.56298e-05
smoothSolver:  Solving for omega, Initial residual = 2.08826e-06, Final residual = 8.99133e-08, No Iterations 2
smoothSolver:  Solving for k, Initial residual = 8.05558e-05, Final residual = 2.23502e-06, No Iterations 2
ExecutionTime = 51.65 s  ClockTime = 52 s

forces forcesFish write:
    Sum of forces
        Total    : (1.28681 -0.031549 -0.0223118)
        Pressure : (1.0267 -0.0324299 -0.0226313)
        Viscous  : (0.260108 0.000880909 0.000319547)
    Sum of moments
        Total    : (0.000460527 0.00528449 0.011239)
        Pressure : (0.000471335 0.00543995 0.00940406)
        Viscous  : (-1.08072e-05 -0.000155466 0.00183493)
    writing force and moment files.

Time = 60

smoothSolver:  Solving for Ux, Initial residual = 3.7875e-05, Final residual = 3.69288e-06, No Iterations 1
smoothSolver:  Solving for Uy, Initial residual = 0.000530858, Final residual = 5.25947e-05, No Iterations 1
smoothSolver:  Solving for Uz, Initial residual = 0.00104644, Final residual = 9.83819e-05, No Iterations 1
GAMG:  Solving for p, Initial residual = 0.00151183, Final residual = 6.34931e-05, No Iterations 2
time step continuity errors : sum local = 2.92733e-06, global = 5.61869e-07, cumulative = 3.61917e-05
smoothSolver:  Solving for omega, Initial residual = 1.95191e-06, Final residual = 8.4598e-08, No Iterations 2
smoothSolver:  Solving for k, Initial residual = 7.09052e-05, Final residual = 1.99759e-06, No Iterations 2
ExecutionTime = 52.5 s  ClockTime = 53 s

forces forcesFish write:
    Sum of forces
        Total    : (1.2861 -0.0326401 -0.0223259)
        Pressure : (1.02613 -0.0335041 -0.0226441)
        Viscous  : (0.259969 0.000863963 0.000318274)
    Sum of moments
        Total    : (0.000460584 0.00528431 0.0108408)
        Pressure : (0.000471374 0.00543928 0.00901157)
        Viscous  : (-1.07902e-05 -0.000154972 0.00182927)
    writing force and moment files.

Time = 61

smoothSolver:  Solving for Ux, Initial residual = 3.56109e-05, Final residual = 3.48034e-06, No Iterations 1
smoothSolver:  Solving for Uy, Initial residual = 0.000512632, Final residual = 5.10052e-05, No Iterations 1
smoothSolver:  Solving for Uz, Initial residual = 0.000993567, Final residual = 9.36432e-05, No Iterations 1
GAMG:  Solving for p, Initial residual = 0.00141764, Final residual = 5.61234e-05, No Iterations 2
time step continuity errors : sum local = 2.58946e-06, global = 5.35096e-07, cumulative = 3.67268e-05
smoothSolver:  Solving for omega, Initial residual = 1.82051e-06, Final residual = 7.92717e-08, No Iterations 2
smoothSolver:  Solving for k, Initial residual = 6.25432e-05, Final residual = 1.78367e-06, No Iterations 2
ExecutionTime = 53.35 s  ClockTime = 54 s

forces forcesFish write:
    Sum of forces
        Total    : (1.28541 -0.0334714 -0.0223244)
        Pressure : (1.02556 -0.0343177 -0.0226415)
        Viscous  : (0.259848 0.000846296 0.000317118)
    Sum of moments
        Total    : (0.000460448 0.00527948 0.010519)
        Pressure : (0.000471223 0.00543399 0.00869538)
        Viscous  : (-1.07753e-05 -0.000154513 0.00182359)
    writing force and moment files.

Time = 62

smoothSolver:  Solving for Ux, Initial residual = 3.3713e-05, Final residual = 3.29762e-06, No Iterations 1
smoothSolver:  Solving for Uy, Initial residual = 0.000492462, Final residual = 4.91578e-05, No Iterations 1
smoothSolver:  Solving for Uz, Initial residual = 0.000936012, Final residual = 8.86577e-05, No Iterations 1
GAMG:  Solving for p, Initial residual = 0.00132937, Final residual = 5.31686e-05, No Iterations 2
time step continuity errors : sum local = 2.45407e-06, global = 3.80858e-07, cumulative = 3.71076e-05
smoothSolver:  Solving for omega, Initial residual = 1.69478e-06, Final residual = 7.40111e-08, No Iterations 2
smoothSolver:  Solving for k, Initial residual = 5.52386e-05, Final residual = 1.59112e-06, No Iterations 2
ExecutionTime = 54.19 s  ClockTime = 54 s

forces forcesFish write:
    Sum of forces
        Total    : (1.28472 -0.0341251 -0.0223122)
        Pressure : (1.02498 -0.0349531 -0.0226284)
        Viscous  : (0.259744 0.000827999 0.00031619)
    Sum of moments
        Total    : (0.000460068 0.00527168 0.0102527)
        Pressure : (0.000470831 0.00542582 0.00843482)
        Viscous  : (-1.0763e-05 -0.000154136 0.0018179)
    writing force and moment files.

Time = 63

smoothSolver:  Solving for Ux, Initial residual = 3.24535e-05, Final residual = 3.14805e-06, No Iterations 1
smoothSolver:  Solving for Uy, Initial residual = 0.000472636, Final residual = 4.71725e-05, No Iterations 1
smoothSolver:  Solving for Uz, Initial residual = 0.00088054, Final residual = 8.38552e-05, No Iterations 1
GAMG:  Solving for p, Initial residual = 0.00124686, Final residual = 5.13137e-05, No Iterations 2
time step continuity errors : sum local = 2.36873e-06, global = 1.4008e-07, cumulative = 3.72477e-05
smoothSolver:  Solving for omega, Initial residual = 1.57481e-06, Final residual = 6.88849e-08, No Iterations 2
smoothSolver:  Solving for k, Initial residual = 4.88054e-05, Final residual = 1.41794e-06, No Iterations 2
ExecutionTime = 55.03 s  ClockTime = 55 s

forces forcesFish write:
    Sum of forces
        Total    : (1.28405 -0.0347098 -0.0222915)
        Pressure : (1.0244 -0.035519 -0.0226069)
        Viscous  : (0.259655 0.000809199 0.000315365)
    Sum of moments
        Total    : (0.000459417 0.0052614 0.0100099)
        Pressure : (0.000470169 0.0054152 0.0081977)
        Viscous  : (-1.07525e-05 -0.000153794 0.00181219)
    writing force and moment files.

Time = 64

smoothSolver:  Solving for Ux, Initial residual = 3.15392e-05, Final residual = 3.01795e-06, No Iterations 1
smoothSolver:  Solving for Uy, Initial residual = 0.000454607, Final residual = 4.52225e-05, No Iterations 1
smoothSolver:  Solving for Uz, Initial residual = 0.000832739, Final residual = 7.96257e-05, No Iterations 1
GAMG:  Solving for p, Initial residual = 0.0011686, Final residual = 4.77635e-05, No Iterations 2
time step continuity errors : sum local = 2.20479e-06, global = -1.32726e-07, cumulative = 3.7115e-05
smoothSolver:  Solving for omega, Initial residual = 1.4607e-06, Final residual = 6.39149e-08, No Iterations 2
smoothSolver:  Solving for k, Initial residual = 4.31193e-05, Final residual = 1.26243e-06, No Iterations 2
ExecutionTime = 55.84 s  ClockTime = 56 s

forces forcesFish write:
    Sum of forces
        Total    : (1.2834 -0.0352881 -0.0222636)
        Pressure : (1.02382 -0.0360782 -0.0225783)
        Viscous  : (0.259581 0.000790067 0.000314688)
    Sum of moments
        Total    : (0.000458506 0.00524884 0.00977004)
        Pressure : (0.00046925 0.00540234 0.00796356)
        Viscous  : (-1.07438e-05 -0.000153503 0.00180649)
    writing force and moment files.

Time = 65

[...]
        Pressure : (1.01843 -0.027884 -0.0236272)
        Viscous  : (0.261346 0.000188271 0.000326909)
    Sum of moments
        Total    : (0.000471534 0.00547685 0.00859006)
        Pressure : (0.000482691 0.00563453 0.00697899)
        Viscous  : (-1.11567e-05 -0.000157682 0.00161107)
    writing force and moment files.

Time = 151

smoothSolver:  Solving for Ux, Initial residual = 1.20704e-06, Final residual = 7.43372e-08, No Iterations 1
smoothSolver:  Solving for Uy, Initial residual = 1.08194e-05, Final residual = 8.74841e-07, No Iterations 1
smoothSolver:  Solving for Uz, Initial residual = 2.63839e-05, Final residual = 2.16579e-06, No Iterations 1
GAMG:  Solving for p, Initial residual = 4.1648e-05, Final residual = 4.10085e-06, No Iterations 1
time step continuity errors : sum local = 1.88862e-07, global = -5.0627e-08, cumulative = 3.50493e-05
smoothSolver:  Solving for omega, Initial residual = 1.7148e-08, Final residual = 2.07589e-09, No Iterations 1
smoothSolver:  Solving for k, Initial residual = 4.11479e-07, Final residual = 1.72439e-08, No Iterations 1
ExecutionTime = 130.07 s  ClockTime = 130 s

forces forcesFish write:
    Sum of forces
        Total    : (1.27978 -0.0276546 -0.0233025)
        Pressure : (1.01843 -0.0278433 -0.0236294)
        Viscous  : (0.261349 0.000188752 0.000326911)
    Sum of moments
        Total    : (0.000471508 0.00547763 0.00860602)
        Pressure : (0.000482665 0.00563531 0.00699481)
        Viscous  : (-1.1157e-05 -0.000157688 0.00161121)
    writing force and moment files.

Time = 152

smoothSolver:  Solving for Ux, Initial residual = 1.12623e-06, Final residual = 6.97028e-08, No Iterations 1
smoothSolver:  Solving for Uy, Initial residual = 1.01477e-05, Final residual = 8.19383e-07, No Iterations 1
smoothSolver:  Solving for Uz, Initial residual = 2.47619e-05, Final residual = 2.02404e-06, No Iterations 1
GAMG:  Solving for p, Initial residual = 4.01313e-05, Final residual = 1.76027e-06, No Iterations 2
time step continuity errors : sum local = 8.1068e-08, global = -4.25141e-08, cumulative = 3.50068e-05
smoothSolver:  Solving for omega, Initial residual = 1.63546e-08, Final residual = 1.9969e-09, No Iterations 1
smoothSolver:  Solving for k, Initial residual = 3.9292e-07, Final residual = 1.63223e-08, No Iterations 1
ExecutionTime = 130.9 s  ClockTime = 131 s

forces forcesFish write:
    Sum of forces
        Total    : (1.27976 -0.0275945 -0.0233049)
        Pressure : (1.0184 -0.0277837 -0.0236318)
        Viscous  : (0.261353 0.00018924 0.000326885)
    Sum of moments
        Total    : (0.000471472 0.00547853 0.00862909)
        Pressure : (0.000482629 0.00563621 0.00701775)
        Viscous  : (-1.11572e-05 -0.000157683 0.00161134)
    writing force and moment files.

Time = 153

smoothSolver:  Solving for Ux, Initial residual = 1.01151e-06, Final residual = 6.28444e-08, No Iterations 1
smoothSolver:  Solving for Uy, Initial residual = 9.51637e-06, Final residual = 7.84615e-07, No Iterations 1
smoothSolver:  Solving for Uz, Initial residual = 2.32696e-05, Final residual = 1.9488e-06, No Iterations 1
GAMG:  Solving for p, Initial residual = 3.84285e-05, Final residual = 3.72826e-06, No Iterations 1
time step continuity errors : sum local = 1.71701e-07, global = -4.59243e-08, cumulative = 3.49609e-05
smoothSolver:  Solving for omega, Initial residual = 1.56484e-08, Final residual = 1.88366e-09, No Iterations 1
smoothSolver:  Solving for k, Initial residual = 3.72732e-07, Final residual = 1.57991e-08, No Iterations 1
ExecutionTime = 131.69 s  ClockTime = 132 s

forces forcesFish write:
    Sum of forces
        Total    : (1.27975 -0.0275597 -0.0233058)
        Pressure : (1.0184 -0.0277494 -0.0236327)
        Viscous  : (0.261355 0.000189709 0.000326888)
    Sum of moments
        Total    : (0.000471445 0.00547885 0.00864255)
        Pressure : (0.000482603 0.00563654 0.00703107)
        Viscous  : (-1.11574e-05 -0.000157689 0.00161148)
    writing force and moment files.

Time = 154

smoothSolver:  Solving for Ux, Initial residual = 9.39679e-07, Final residual = 5.99035e-08, No Iterations 1
smoothSolver:  Solving for Uy, Initial residual = 8.89019e-06, Final residual = 7.31685e-07, No Iterations 1
smoothSolver:  Solving for Uz, Initial residual = 2.17325e-05, Final residual = 1.81049e-06, No Iterations 1
GAMG:  Solving for p, Initial residual = 3.696e-05, Final residual = 3.66207e-06, No Iterations 1
time step continuity errors : sum local = 1.68652e-07, global = -4.30791e-08, cumulative = 3.49178e-05
smoothSolver:  Solving for omega, Initial residual = 1.48122e-08, Final residual = 1.80922e-09, No Iterations 1
smoothSolver:  Solving for k, Initial residual = 3.53538e-07, Final residual = 1.50328e-08, No Iterations 1
ExecutionTime = 132.48 s  ClockTime = 133 s

forces forcesFish write:
    Sum of forces
        Total    : (1.27975 -0.0275262 -0.0233064)
        Pressure : (1.01839 -0.0277163 -0.0236332)
        Viscous  : (0.261358 0.000190148 0.000326855)
    Sum of moments
        Total    : (0.000471418 0.00547906 0.00865552)
        Pressure : (0.000482575 0.00563674 0.00704392)
        Viscous  : (-1.11574e-05 -0.00015768 0.0016116)
    writing force and moment files.

Time = 155

smoothSolver:  Solving for Ux, Initial residual = 8.69581e-07, Final residual = 5.5827e-08, No Iterations 1
smoothSolver:  Solving for Uy, Initial residual = 8.32601e-06, Final residual = 6.82451e-07, No Iterations 1
smoothSolver:  Solving for Uz, Initial residual = 2.03484e-05, Final residual = 1.6823e-06, No Iterations 1
GAMG:  Solving for p, Initial residual = 3.54772e-05, Final residual = 1.55477e-06, No Iterations 2
time step continuity errors : sum local = 7.16027e-08, global = -3.52974e-08, cumulative = 3.48825e-05
smoothSolver:  Solving for omega, Initial residual = 1.40834e-08, Final residual = 1.72766e-09, No Iterations 1
smoothSolver:  Solving for k, Initial residual = 3.35324e-07, Final residual = 1.40953e-08, No Iterations 1
ExecutionTime = 133.31 s  ClockTime = 134 s

forces forcesFish write:
    Sum of forces
        Total    : (1.27973 -0.0274769 -0.0233064)
        Pressure : (1.01837 -0.0276675 -0.0236333)
        Viscous  : (0.261361 0.000190585 0.000326838)
    Sum of moments
        Total    : (0.000471378 0.00547915 0.00867442)
        Pressure : (0.000482535 0.00563682 0.00706269)
        Viscous  : (-1.11574e-05 -0.000157678 0.00161173)
    writing force and moment files.

Time = 156

smoothSolver:  Solving for Ux, Initial residual = 7.71166e-07, Final residual = 4.98124e-08, No Iterations 1
smoothSolver:  Solving for Uy, Initial residual = 7.79867e-06, Final residual = 6.49822e-07, No Iterations 1
smoothSolver:  Solving for Uz, Initial residual = 1.90555e-05, Final residual = 1.6085e-06, No Iterations 1
GAMG:  Solving for p, Initial residual = 3.37988e-05, Final residual = 3.23906e-06, No Iterations 1
time step continuity errors : sum local = 1.49169e-07, global = -3.37266e-08, cumulative = 3.48488e-05
smoothSolver:  Solving for omega, Initial residual = 1.34469e-08, Final residual = 1.63837e-09, No Iterations 1
smoothSolver:  Solving for k, Initial residual = 3.16861e-07, Final residual = 1.35828e-08, No Iterations 1
ExecutionTime = 134.1 s  ClockTime = 134 s

forces forcesFish write:
    Sum of forces
        Total    : (1.27973 -0.0274486 -0.0233061)
        Pressure : (1.01837 -0.0276396 -0.0236329)
        Viscous  : (0.261363 0.000191018 0.000326808)
    Sum of moments
        Total    : (0.000471352 0.00547904 0.00868536)
        Pressure : (0.000482509 0.00563671 0.0070735)
        Viscous  : (-1.11573e-05 -0.00015767 0.00161185)
    writing force and moment files.

Time = 157

smoothSolver:  Solving for Ux, Initial residual = 7.1221e-07, Final residual = 4.73942e-08, No Iterations 1
smoothSolver:  Solving for Uy, Initial residual = 7.27863e-06, Final residual = 6.04707e-07, No Iterations 1
smoothSolver:  Solving for Uz, Initial residual = 1.77614e-05, Final residual = 1.49e-06, No Iterations 1
GAMG:  Solving for p, Initial residual = 3.2362e-05, Final residual = 3.12526e-06, No Iterations 1
time step continuity errors : sum local = 1.43927e-07, global = -2.88009e-08, cumulative = 3.482e-05
smoothSolver:  Solving for omega, Initial residual = 1.27563e-08, Final residual = 1.56762e-09, No Iterations 1
smoothSolver:  Solving for k, Initial residual = 2.99195e-07, Final residual = 1.28791e-08, No Iterations 1
ExecutionTime = 134.9 s  ClockTime = 135 s

forces forcesFish write:
    Sum of forces
        Total    : (1.27973 -0.0274213 -0.0233055)
        Pressure : (1.01837 -0.0276128 -0.0236323)
        Viscous  : (0.261366 0.00019141 0.000326787)
    Sum of moments
        Total    : (0.000471325 0.00547884 0.0086959)
        Pressure : (0.000482483 0.00563651 0.00708393)
        Viscous  : (-1.11572e-05 -0.000157666 0.00161197)
    writing force and moment files.

Time = 158

smoothSolver:  Solving for Ux, Initial residual = 6.5746e-07, Final residual = 4.41232e-08, No Iterations 1
smoothSolver:  Solving for Uy, Initial residual = 6.81303e-06, Final residual = 5.63453e-07, No Iterations 1
smoothSolver:  Solving for Uz, Initial residual = 1.66036e-05, Final residual = 1.38176e-06, No Iterations 1
GAMG:  Solving for p, Initial residual = 3.09411e-05, Final residual = 3.01411e-06, No Iterations 1
time step continuity errors : sum local = 1.38808e-07, global = -2.37598e-08, cumulative = 3.47962e-05
smoothSolver:  Solving for omega, Initial residual = 1.20725e-08, Final residual = 1.4907e-09, No Iterations 1
smoothSolver:  Solving for k, Initial residual = 2.82216e-07, Final residual = 1.21778e-08, No Iterations 1
ExecutionTime = 135.67 s  ClockTime = 136 s

forces forcesFish write:
    Sum of forces
        Total    : (1.27974 -0.027395 -0.0233046)
        Pressure : (1.01837 -0.0275868 -0.0236313)
        Viscous  : (0.261368 0.000191794 0.000326743)
    Sum of moments
        Total    : (0.000471298 0.00547856 0.00870611)
        Pressure : (0.000482455 0.00563621 0.00709403)
        Viscous  : (-1.1157e-05 -0.000157653 0.00161208)
    writing force and moment files.

Time = 159

smoothSolver:  Solving for Ux, Initial residual = 6.08469e-07, Final residual = 4.11807e-08, No Iterations 1
smoothSolver:  Solving for Uy, Initial residual = 6.38271e-06, Final residual = 5.26211e-07, No Iterations 1
smoothSolver:  Solving for Uz, Initial residual = 1.55248e-05, Final residual = 1.28444e-06, No Iterations 1
GAMG:  Solving for p, Initial residual = 2.95539e-05, Final residual = 2.89783e-06, No Iterations 1
time step continuity errors : sum local = 1.33453e-07, global = -1.86735e-08, cumulative = 3.47775e-05
smoothSolver:  Solving for omega, Initial residual = 1.14669e-08, Final residual = 1.41557e-09, No Iterations 1
smoothSolver:  Solving for k, Initial residual = 2.65919e-07, Final residual = 1.14926e-08, No Iterations 1
ExecutionTime = 136.45 s  ClockTime = 137 s

forces forcesFish write:
    Sum of forces
        Total    : (1.27974 -0.0273697 -0.0233034)
        Pressure : (1.01837 -0.0275619 -0.0236301)
        Viscous  : (0.26137 0.00019216 0.000326719)
    Sum of moments
        Total    : (0.000471271 0.00547817 0.00871596)
        Pressure : (0.000482428 0.00563582 0.00710377)
        Viscous  : (-1.11568e-05 -0.000157647 0.00161219)
    writing force and moment files.

Time = 160

smoothSolver:  Solving for Ux, Initial residual = 5.64588e-07, Final residual = 3.8524e-08, No Iterations 1
smoothSolver:  Solving for Uy, Initial residual = 5.9725e-06, Final residual = 4.92305e-07, No Iterations 1
smoothSolver:  Solving for Uz, Initial residual = 1.44948e-05, Final residual = 1.19714e-06, No Iterations 1
GAMG:  Solving for p, Initial residual = 2.81996e-05, Final residual = 2.77767e-06, No Iterations 1
time step continuity errors : sum local = 1.27919e-07, global = -1.36082e-08, cumulative = 3.47639e-05
smoothSolver:  Solving for omega, Initial residual = 1.0852e-08, Final residual = 1.34169e-09, No Iterations 1
smoothSolver:  Solving for k, Initial residual = 2.50372e-07, Final residual = 1.08406e-08, No Iterations 1
ExecutionTime = 137.21 s  ClockTime = 138 s

forces forcesFish write:
    Sum of forces
        Total    : (1.27974 -0.0273454 -0.023302)
        Pressure : (1.01837 -0.027538 -0.0236287)
        Viscous  : (0.261372 0.000192516 0.000326678)
    Sum of moments
        Total    : (0.000471244 0.0054777 0.00872543)
        Pressure : (0.000482401 0.00563534 0.00711314)
        Viscous  : (-1.11565e-05 -0.000157634 0.00161229)
    writing force and moment files.

Time = 161

smoothSolver:  Solving for Ux, Initial residual = 5.25198e-07, Final residual = 3.61213e-08, No Iterations 1
smoothSolver:  Solving for Uy, Initial residual = 5.57841e-06, Final residual = 4.61432e-07, No Iterations 1
smoothSolver:  Solving for Uz, Initial residual = 1.35071e-05, Final residual = 1.11867e-06, No Iterations 1
GAMG:  Solving for p, Initial residual = 2.68847e-05, Final residual = 2.66078e-06, No Iterations 1
time step continuity errors : sum local = 1.22536e-07, global = -8.61523e-09, cumulative = 3.47553e-05
smoothSolver:  Solving for omega, Initial residual = 1.02654e-08, Final residual = 1.27095e-09, No Iterations 1
smoothSolver:  Solving for k, Initial residual = 2.35611e-07, Final residual = 1.02306e-08, No Iterations 1
ExecutionTime = 138 s  ClockTime = 138 s

forces forcesFish write:
    Sum of forces
        Total    : (1.27974 -0.0273223 -0.0233003)
        Pressure : (1.01837 -0.0275152 -0.0236269)
        Viscous  : (0.261374 0.000192852 0.000326646)
    Sum of moments
        Total    : (0.000471217 0.00547713 0.00873448)
        Pressure : (0.000482373 0.00563475 0.00712209)
        Viscous  : (-1.11563e-05 -0.000157625 0.00161239)
    writing force and moment files.

Time = 162

smoothSolver:  Solving for Ux, Initial residual = 4.89919e-07, Final residual = 3.3967e-08, No Iterations 1
smoothSolver:  Solving for Uy, Initial residual = 5.20205e-06, Final residual = 4.3358e-07, No Iterations 1
smoothSolver:  Solving for Uz, Initial residual = 1.2566e-05, Final residual = 1.04775e-06, No Iterations 1
GAMG:  Solving for p, Initial residual = 2.56083e-05, Final residual = 2.55202e-06, No Iterations 1
time step continuity errors : sum local = 1.17527e-07, global = -3.73438e-09, cumulative = 3.47516e-05
smoothSolver:  Solving for omega, Initial residual = 9.72459e-09, Final residual = 9.72459e-09, No Iterations 0
smoothSolver:  Solving for k, Initial residual = 2.25977e-07, Final residual = 9.77425e-09, No Iterations 1
ExecutionTime = 138.78 s  ClockTime = 139 s

forces forcesFish write:
    Sum of forces
        Total    : (1.27975 -0.0273005 -0.0232983)
        Pressure : (1.01837 -0.0274936 -0.0236249)
        Viscous  : (0.261376 0.000193174 0.00032661)
    Sum of moments
        Total    : (0.00047119 0.00547646 0.00874308)
        Pressure : (0.000482346 0.00563407 0.00713059)
        Viscous  : (-1.1156e-05 -0.000157613 0.00161249)
    writing force and moment files.

Time = 163

smoothSolver:  Solving for Ux, Initial residual = 4.58384e-07, Final residual = 3.20123e-08, No Iterations 1
smoothSolver:  Solving for Uy, Initial residual = 4.84741e-06, Final residual = 4.08086e-07, No Iterations 1
smoothSolver:  Solving for Uz, Initial residual = 1.16835e-05, Final residual = 9.83762e-07, No Iterations 1
GAMG:  Solving for p, Initial residual = 2.43703e-05, Final residual = 9.08684e-07, No Iterations 2
time step continuity errors : sum local = 4.18474e-08, global = -8.27722e-10, cumulative = 3.47508e-05
smoothSolver:  Solving for omega, Initial residual = 1.22272e-08, Final residual = 1.467e-09, No Iterations 1
smoothSolver:  Solving for k, Initial residual = 2.14247e-07, Final residual = 9.24424e-09, No Iterations 1
ExecutionTime = 139.59 s  ClockTime = 140 s

forces forcesFish write:
    Sum of forces
        Total    : (1.27975 -0.02727 -0.0232942)
        Pressure : (1.01837 -0.0274635 -0.0236208)
        Viscous  : (0.261378 0.000193486 0.000326581)
    Sum of moments
        Total    : (0.000471147 0.00547514 0.00875508)
        Pressure : (0.000482303 0.00563275 0.0071425)
        Viscous  : (-1.11558e-05 -0.000157605 0.00161259)
    writing force and moment files.

Time = 164

smoothSolver:  Solving for Ux, Initial residual = 4.33695e-07, Final residual = 2.9932e-08, No Iterations 1
smoothSolver:  Solving for Uy, Initial residual = 4.51927e-06, Final residual = 3.95348e-07, No Iterations 1
smoothSolver:  Solving for Uz, Initial residual = 1.08774e-05, Final residual = 9.59024e-07, No Iterations 1
GAMG:  Solving for p, Initial residual = 2.29766e-05, Final residual = 2.12917e-06, No Iterations 1
time step continuity errors : sum local = 9.80543e-08, global = 5.04679e-09, cumulative = 3.47558e-05
smoothSolver:  Solving for omega, Initial residual = 1.05911e-08, Final residual = 1.31602e-09, No Iterations 1
smoothSolver:  Solving for k, Initial residual = 1.99429e-07, Final residual = 8.77205e-09, No Iterations 1
ExecutionTime = 140.37 s  ClockTime = 141 s

forces forcesFish write:
    Sum of forces
        Total    : (1.27975 -0.0272527 -0.0232917)
        Pressure : (1.01837 -0.0274465 -0.0236182)
        Viscous  : (0.261379 0.000193794 0.000326557)
    Sum of moments
        Total    : (0.000471122 0.00547427 0.00876191)
        Pressure : (0.000482278 0.00563187 0.00714923)
        Viscous  : (-1.11556e-05 -0.000157597 0.00161268)
    writing force and moment files.

Time = 165

smoothSolver:  Solving for Ux, Initial residual = 4.06739e-07, Final residual = 2.86605e-08, No Iterations 1
smoothSolver:  Solving for Uy, Initial residual = 4.19374e-06, Final residual = 3.70144e-07, No Iterations 1
smoothSolver:  Solving for Uz, Initial residual = 1.00861e-05, Final residual = 8.98733e-07, No Iterations 1
GAMG:  Solving for p, Initial residual = 2.18622e-05, Final residual = 2.04375e-06, No Iterations 1
time step continuity errors : sum local = 9.41203e-08, global = 9.23019e-09, cumulative = 3.4765e-05
smoothSolver:  Solving for omega, Initial residual = 9.52434e-09, Final residual = 9.52434e-09, No Iterations 0
smoothSolver:  Solving for k, Initial residual = 1.90744e-07, Final residual = 8.44829e-09, No Iterations 1
ExecutionTime = 141.15 s  ClockTime = 141 s

forces forcesFish write:
    Sum of forces
        Total    : (1.27976 -0.0272366 -0.0232889)
        Pressure : (1.01838 -0.0274306 -0.0236154)
        Viscous  : (0.261381 0.000194058 0.000326539)
    Sum of moments
        Total    : (0.000471097 0.00547332 0.00876831)
        Pressure : (0.000482252 0.00563092 0.00715555)
        Viscous  : (-1.11553e-05 -0.000157593 0.00161276)
    writing force and moment files.

Time = 166

smoothSolver:  Solving for Ux, Initial residual = 3.8245e-07, Final residual = 2.7131e-08, No Iterations 1
smoothSolver:  Solving for Uy, Initial residual = 3.90557e-06, Final residual = 3.46178e-07, No Iterations 1
smoothSolver:  Solving for Uz, Initial residual = 9.42076e-06, Final residual = 8.40371e-07, No Iterations 1
GAMG:  Solving for p, Initial residual = 2.08282e-05, Final residual = 2.00347e-06, No Iterations 1
time step continuity errors : sum local = 9.22655e-08, global = 1.3304e-08, cumulative = 3.47783e-05
smoothSolver:  Solving for omega, Initial residual = 1.17213e-08, Final residual = 1.43589e-09, No Iterations 1
smoothSolver:  Solving for k, Initial residual = 1.79111e-07, Final residual = 8.00194e-09, No Iterations 1
ExecutionTime = 141.94 s  ClockTime = 142 s


SIMPLE solution converged in 166 iterations

forces forcesFish write:
    Sum of forces
        Total    : (1.27976 -0.0272214 -0.0232859)
        Pressure : (1.01838 -0.0274157 -0.0236124)
        Viscous  : (0.261382 0.000194313 0.000326502)
    Sum of moments
        Total    : (0.00047107 0.00547229 0.00877437)
        Pressure : (0.000482225 0.00562987 0.00716153)
        Viscous  : (-1.1155e-05 -0.00015758 0.00161284)
    writing force and moment files.

End

