/*---------------------------------------------------------------------------*\
| =========                 |                                                 |
| \\      /  F ield         | OpenFOAM: The Open Source CFD Toolbox           |
|  \\    /   O peration     | Version:  2512                                  |
|   \\  /    A nd           | Website:  www.openfoam.com                      |
|    \\/     M anipulation  |                                                 |
\*---------------------------------------------------------------------------*/
Build  : _bd2b6720-20260127 OPENFOAM=2512 version=2512
Arch   : "LSB;label=32;scalar=64"
Exec   : simpleFoam
Date   : Mar 28 2026
Time   : 17:36:36
Host   : mathias-laptop
PID    : 9905
I/O    : uncollated
Case   : /home/mat/OpenFOAM/mat-run/speed_sweep_runs/U_1p0
nProcs : 1
trapFpe: Floating point exception trapping enabled (FOAM_SIGFPE).
memory pool : not available
fileModificationChecking : Monitoring run-time modified files using timeStampMaster (fileModificationSkew 5, maxFileModificationPolls 20)
allowSystemOperations : Allowing user-supplied system call operations

// * * * * * * * * * * * * * * * * * * * * * * * * * * * * * * * * * * * * * //
Create time

Create mesh for time = 0


SIMPLE: convergence criteria
    field p	 tolerance 0.0001
    field U	 tolerance 1e-05
    field "(k|omega)"	 tolerance 1e-05

Reading field p

Reading field U

Reading/calculating face flux field phi

Selecting incompressible transport model Newtonian
Selecting turbulence model type RAS
Selecting RAS turbulence model kOmegaSST
Selecting patchDistMethod meshWave
RAS
{
    RASModel        kOmegaSST;
    turbulence      on;
    printCoeffs     on;
    alphaK1         0.85;
    alphaK2         1;
    alphaOmega1     0.5;
    alphaOmega2     0.856;
    gamma1          0.555556;
    gamma2          0.44;
    beta1           0.075;
    beta2           0.0828;
    betaStar        0.09;
    a1              0.31;
    b1              1;
    c1              10;
    F3              false;
    decayControl    false;
    kInf            0;
    omegaInf        0;
}

No MRF models present

No finite volume options present

Starting time loop

forces forcesFish:
    rho: rhoInf
    Freestream density (rhoInf) set to 1000
    Not including porosity effects

Time = 1

smoothSolver:  Solving for Ux, Initial residual = 1, Final residual = 0.023405, No Iterations 2
smoothSolver:  Solving for Uy, Initial residual = 1, Final residual = 0.0497287, No Iterations 2
smoothSolver:  Solving for Uz, Initial residual = 1, Final residual = 0.0442384, No Iterations 2
GAMG:  Solving for p, Initial residual = 1, Final residual = 0.0580297, No Iterations 5
time step continuity errors : sum local = 1.15302e-05, global = -1.39658e-06, cumulative = -1.39658e-06
smoothSolver:  Solving for omega, Initial residual = 0.00763373, Final residual = 0.000245133, No Iterations 1
bounding omega, min: -6.4651 max: 10124.2 average: 98.6522
smoothSolver:  Solving for k, Initial residual = 1, Final residual = 0.0310201, No Iterations 1
ExecutionTime = 1.73 s  ClockTime = 1 s

forces forcesFish write:
    Sum of forces
        Total    : (0.956137 0.0253298 -0.0084037)
        Pressure : (0.788295 0.0252708 -0.00840081)
        Viscous  : (0.167842 5.89205e-05 -2.89138e-06)
    Sum of moments
        Total    : (-2.76804e-06 -1.52925e-05 0.0178463)
        Pressure : (-2.70379e-06 -1.94195e-05 0.0177506)
        Viscous  : (-6.42462e-08 4.12704e-06 9.56551e-05)
    writing force and moment files.

Time = 2

smoothSolver:  Solving for Ux, Initial residual = 0.022455, Final residual = 0.000927745, No Iterations 2
smoothSolver:  Solving for Uy, Initial residual = 0.322926, Final residual = 0.0223918, No Iterations 2
smoothSolver:  Solving for Uz, Initial residual = 0.263948, Final residual = 0.0194604, No Iterations 2
GAMG:  Solving for p, Initial residual = 0.154981, Final residual = 0.013136, No Iterations 3
time step continuity errors : sum local = 2.25678e-05, global = -1.24672e-06, cumulative = -2.6433e-06
smoothSolver:  Solving for omega, Initial residual = 0.00483775, Final residual = 0.000147341, No Iterations 1
smoothSolver:  Solving for k, Initial residual = 0.43552, Final residual = 0.0139029, No Iterations 1
ExecutionTime = 2.27 s  ClockTime = 2 s

forces forcesFish write:
    Sum of forces
        Total    : (1.20703 0.0368116 -0.00917141)
        Pressure : (1.03824 0.0367628 -0.00919423)
        Viscous  : (0.168789 4.87611e-05 2.28189e-05)
    Sum of moments
        Total    : (1.81251e-06 -5.66625e-05 0.0244266)
        Pressure : (1.73404e-06 -5.91103e-05 0.0243299)
        Viscous  : (7.84783e-08 2.4478e-06 9.6752e-05)
    writing force and moment files.

Time = 3

smoothSolver:  Solving for Ux, Initial residual = 0.00485271, Final residual = 0.000213101, No Iterations 2
smoothSolver:  Solving for Uy, Initial residual = 0.197042, Final residual = 0.0134416, No Iterations 2
smoothSolver:  Solving for Uz, Initial residual = 0.14777, Final residual = 0.0107425, No Iterations 2
GAMG:  Solving for p, Initial residual = 0.345799, Final residual = 0.0127626, No Iterations 3
time step continuity errors : sum local = 1.39894e-05, global = -1.22286e-06, cumulative = -3.86615e-06
smoothSolver:  Solving for omega, Initial residual = 0.00346429, Final residual = 0.000109309, No Iterations 1
smoothSolver:  Solving for k, Initial residual = 0.254058, Final residual = 0.00830728, No Iterations 1
ExecutionTime = 2.94 s  ClockTime = 2 s

forces forcesFish write:
    Sum of forces
        Total    : (1.14976 0.037444 -0.00760739)
        Pressure : (0.979613 0.0374118 -0.00764998)
        Viscous  : (0.17015 3.2172e-05 4.25924e-05)
    Sum of moments
        Total    : (8.38996e-06 -0.000171595 0.0231866)
        Pressure : (8.1693e-06 -0.000172744 0.0230948)
        Viscous  : (2.2066e-07 1.14947e-06 9.17423e-05)
    writing force and moment files.

Time = 4

smoothSolver:  Solving for Ux, Initial residual = 0.0025919, Final residual = 0.000114374, No Iterations 2
smoothSolver:  Solving for Uy, Initial residual = 0.147038, Final residual = 0.00987418, No Iterations 2
smoothSolver:  Solving for Uz, Initial residual = 0.090537, Final residual = 0.00645728, No Iterations 2
GAMG:  Solving for p, Initial residual = 0.301724, Final residual = 0.0135276, No Iterations 3
time step continuity errors : sum local = 2.37909e-05, global = -1.01895e-06, cumulative = -4.8851e-06
smoothSolver:  Solving for omega, Initial residual = 0.00260758, Final residual = 8.49853e-05, No Iterations 1
smoothSolver:  Solving for k, Initial residual = 0.1685, Final residual = 0.00562032, No Iterations 1
ExecutionTime = 3.63 s  ClockTime = 3 s

forces forcesFish write:
    Sum of forces
        Total    : (0.914466 0.0311857 -0.004843)
        Pressure : (0.743045 0.0311751 -0.00489642)
        Viscous  : (0.171421 1.06203e-05 5.34187e-05)
    Sum of moments
        Total    : (1.40085e-05 -0.000303392 0.0173606)
        Pressure : (1.36709e-05 -0.000303643 0.0172758)
        Viscous  : (3.37676e-07 2.50714e-07 8.47947e-05)
    writing force and moment files.

Time = 5

smoothSolver:  Solving for Ux, Initial residual = 0.00160231, Final residual = 6.88121e-05, No Iterations 2
smoothSolver:  Solving for Uy, Initial residual = 0.100573, Final residual = 0.00658417, No Iterations 2
smoothSolver:  Solving for Uz, Initial residual = 0.053405, Final residual = 0.00367904, No Iterations 2
GAMG:  Solving for p, Initial residual = 0.155767, Final residual = 0.00830108, No Iterations 3
time step continuity errors : sum local = 2.92897e-05, global = -3.97222e-07, cumulative = -5.28232e-06
smoothSolver:  Solving for omega, Initial residual = 0.00202709, Final residual = 6.79708e-05, No Iterations 1
smoothSolver:  Solving for k, Initial residual = 0.120551, Final residual = 0.00408955, No Iterations 1
ExecutionTime = 4.16 s  ClockTime = 4 s

forces forcesFish write:
    Sum of forces
        Total    : (0.613338 0.0222183 -0.00181371)
        Pressure : (0.440812 0.0222352 -0.00186783)
        Viscous  : (0.172526 -1.69289e-05 5.41236e-05)
    Sum of moments
        Total    : (1.63634e-05 -0.000356824 0.00985392)
        Pressure : (1.59401e-05 -0.000356741 0.00977662)
        Viscous  : (4.23291e-07 -8.32584e-08 7.7306e-05)
    writing force and moment files.

Time = 6

smoothSolver:  Solving for Ux, Initial residual = 0.00115593, Final residual = 4.25652e-05, No Iterations 2
smoothSolver:  Solving for Uy, Initial residual = 0.0577363, Final residual = 0.00318903, No Iterations 2
smoothSolver:  Solving for Uz, Initial residual = 0.0290552, Final residual = 0.00162116, No Iterations 2
GAMG:  Solving for p, Initial residual = 0.0901992, Final residual = 0.00533835, No Iterations 3
time step continuity errors : sum local = 2.79638e-05, global = 4.84377e-07, cumulative = -4.79795e-06
smoothSolver:  Solving for omega, Initial residual = 0.00161345, Final residual = 5.54107e-05, No Iterations 1
smoothSolver:  Solving for k, Initial residual = 0.0907909, Final residual = 0.00312616, No Iterations 1
ExecutionTime = 4.68 s  ClockTime = 4 s

forces forcesFish write:
    Sum of forces
        Total    : (0.333955 0.0134997 0.000695286)
        Pressure : (0.160487 0.0135464 0.000648527)
        Viscous  : (0.173468 -4.6651e-05 4.67589e-05)
    Sum of moments
        Total    : (1.56635e-05 -0.000291335 0.00294004)
        Pressure : (1.51916e-05 -0.000291442 0.00286938)
        Viscous  : (4.71878e-07 1.06984e-07 7.06566e-05)
    writing force and moment files.

Time = 7

smoothSolver:  Solving for Ux, Initial residual = 0.000953901, Final residual = 2.92517e-05, No Iterations 2
smoothSolver:  Solving for Uy, Initial residual = 0.0396928, Final residual = 0.00136523, No Iterations 2
smoothSolver:  Solving for Uz, Initial residual = 0.0233921, Final residual = 0.000814164, No Iterations 2
GAMG:  Solving for p, Initial residual = 0.0588975, Final residual = 0.003256, No Iterations 3
time step continuity errors : sum local = 2.15673e-05, global = 1.33951e-06, cumulative = -3.45844e-06
smoothSolver:  Solving for omega, Initial residual = 0.00130857, Final residual = 4.5841e-05, No Iterations 1
smoothSolver:  Solving for k, Initial residual = 0.0710299, Final residual = 0.00247963, No Iterations 1
ExecutionTime = 5.23 s  ClockTime = 5 s

forces forcesFish write:
    Sum of forces
        Total    : (0.129731 0.00656919 0.00221745)
        Pressure : (-0.0445135 0.00664062 0.00218254)
        Viscous  : (0.174244 -7.14299e-05 3.49084e-05)
    Sum of moments
        Total    : (1.24489e-05 -0.000126084 -0.00202344)
        Pressure : (1.19691e-05 -0.00012675 -0.00208965)
        Viscous  : (4.79826e-07 6.65546e-07 6.62065e-05)
    writing force and moment files.

Time = 8

smoothSolver:  Solving for Ux, Initial residual = 0.000876213, Final residual = 2.57227e-05, No Iterations 2
smoothSolver:  Solving for Uy, Initial residual = 0.0400553, Final residual = 0.00182862, No Iterations 2
smoothSolver:  Solving for Uz, Initial residual = 0.0358461, Final residual = 0.00189727, No Iterations 2
GAMG:  Solving for p, Initial residual = 0.0493023, Final residual = 0.00462359, No Iterations 2
time step continuity errors : sum local = 3.47721e-05, global = 2.13263e-06, cumulative = -1.32581e-06
smoothSolver:  Solving for omega, Initial residual = 0.00107815, Final residual = 3.84463e-05, No Iterations 1
smoothSolver:  Solving for k, Initial residual = 0.0572336, Final residual = 0.00202461, No Iterations 1
ExecutionTime = 5.73 s  ClockTime = 5 s

forces forcesFish write:
    Sum of forces
        Total    : (0.0280421 0.00211033 0.0015298)
        Pressure : (-0.146796 0.0021951 0.0015074)
        Viscous  : (0.174838 -8.47621e-05 2.23989e-05)
    Sum of moments
        Total    : (1.12884e-05 0.000236333 -0.00440888)
        Pressure : (1.08353e-05 0.000235005 -0.00447366)
        Viscous  : (4.53111e-07 1.32813e-06 6.47766e-05)
    writing force and moment files.

Time = 9

smoothSolver:  Solving for Ux, Initial residual = 0.000838381, Final residual = 2.46739e-05, No Iterations 2
smoothSolver:  Solving for Uy, Initial residual = 0.0369925, Final residual = 0.00188245, No Iterations 2
smoothSolver:  Solving for Uz, Initial residual = 0.0448746, Final residual = 0.00259664, No Iterations 2
GAMG:  Solving for p, Initial residual = 0.0525251, Final residual = 0.00382584, No Iterations 2
time step continuity errors : sum local = 3.0112e-05, global = 2.99772e-06, cumulative = 1.67191e-06
smoothSolver:  Solving for omega, Initial residual = 0.000899925, Final residual = 3.25807e-05, No Iterations 1
smoothSolver:  Solving for k, Initial residual = 0.0471828, Final residual = 0.00168992, No Iterations 1
ExecutionTime = 6.22 s  ClockTime = 6 s

forces forcesFish write:
    Sum of forces
        Total    : (0.00562066 -5.73417e-05 0.00046582)
        Pressure : (-0.169613 2.69491e-05 0.000453566)
        Viscous  : (0.175233 -8.42908e-05 1.2254e-05)
    Sum of moments
        Total    : (7.14039e-06 0.000532871 -0.00478951)
        Pressure : (6.74075e-06 0.000530982 -0.00485569)
        Viscous  : (3.99641e-07 1.88877e-06 6.61789e-05)
    writing force and moment files.

Time = 10

smoothSolver:  Solving for Ux, Initial residual = 0.000783576, Final residual = 2.25218e-05, No Iterations 2
smoothSolver:  Solving for Uy, Initial residual = 0.0315045, Final residual = 0.00162089, No Iterations 2
smoothSolver:  Solving for Uz, Initial residual = 0.0471794, Final residual = 0.00275205, No Iterations 2
GAMG:  Solving for p, Initial residual = 0.0585556, Final residual = 0.00439994, No Iterations 2
time step continuity errors : sum local = 3.45235e-05, global = 3.79047e-06, cumulative = 5.46238e-06
smoothSolver:  Solving for omega, Initial residual = 0.000759304, Final residual = 2.78836e-05, No Iterations 1
smoothSolver:  Solving for k, Initial residual = 0.0395784, Final residual = 0.00143374, No Iterations 1
ExecutionTime = 6.75 s  ClockTime = 6 s

forces forcesFish write:
    Sum of forces
        Total    : (0.0376191 -0.000453838 -0.000295777)
        Pressure : (-0.137784 -0.000382266 -0.000302033)
        Viscous  : (0.175403 -7.15714e-05 6.25607e-06)
    Sum of moments
        Total    : (4.98598e-07 0.000632236 -0.00376777)
        Pressure : (1.65932e-07 0.000629996 -0.00383736)
        Viscous  : (3.32666e-07 2.24032e-06 6.95971e-05)
    writing force and moment files.

Time = 11

smoothSolver:  Solving for Ux, Initial residual = 0.00069879, Final residual = 1.91531e-05, No Iterations 2
smoothSolver:  Solving for Uy, Initial residual = 0.0259857, Final residual = 0.00125826, No Iterations 2
smoothSolver:  Solving for Uz, Initial residual = 0.0427502, Final residual = 0.00235772, No Iterations 2
GAMG:  Solving for p, Initial residual = 0.0610544, Final residual = 0.00484702, No Iterations 2
time step continuity errors : sum local = 3.66114e-05, global = 4.13001e-06, cumulative = 9.59239e-06
smoothSolver:  Solving for omega, Initial residual = 0.000646382, Final residual = 2.40708e-05, No Iterations 1
smoothSolver:  Solving for k, Initial residual = 0.0336921, Final residual = 0.00123298, No Iterations 1
ExecutionTime = 7.26 s  ClockTime = 7 s

forces forcesFish write:
    Sum of forces
        Total    : (0.0987304 0.000147658 -0.000555741)
        Pressure : (-0.0766093 0.000197594 -0.000560727)
        Viscous  : (0.17534 -4.99353e-05 4.98633e-06)
    Sum of moments
        Total    : (-7.0312e-06 0.00053787 -0.00199815)
        Pressure : (-7.29731e-06 0.000535544 -0.00207248)
        Viscous  : (2.66109e-07 2.32667e-06 7.43338e-05)
    writing force and moment files.

Time = 12

smoothSolver:  Solving for Ux, Initial residual = 0.000597645, Final residual = 1.5398e-05, No Iterations 2
smoothSolver:  Solving for Uy, Initial residual = 0.0221348, Final residual = 0.000895524, No Iterations 2
smoothSolver:  Solving for Uz, Initial residual = 0.0340382, Final residual = 0.00157716, No Iterations 2
GAMG:  Solving for p, Initial residual = 0.0608064, Final residual = 0.00495905, No Iterations 2
time step continuity errors : sum local = 3.50315e-05, global = 4.20857e-06, cumulative = 1.3801e-05
smoothSolver:  Solving for omega, Initial residual = 0.000554363, Final residual = 2.09151e-05, No Iterations 1
smoothSolver:  Solving for k, Initial residual = 0.0289958, Final residual = 0.00107057, No Iterations 1
ExecutionTime = 7.77 s  ClockTime = 7 s

forces forcesFish write:
    Sum of forces
        Total    : (0.166432 0.00105948 -0.000325817)
        Pressure : (-0.0086322 0.00108307 -0.000333586)
        Viscous  : (0.175064 -2.35908e-05 7.76926e-06)
    Sum of moments
        Total    : (-1.3646e-05 0.000299145 -0.000111009)
        Pressure : (-1.38572e-05 0.000296991 -0.000190729)
        Viscous  : (2.11204e-07 2.15465e-06 7.97204e-05)
    writing force and moment files.

Time = 13

smoothSolver:  Solving for Ux, Initial residual = 0.000508347, Final residual = 1.25361e-05, No Iterations 2
smoothSolver:  Solving for Uy, Initial residual = 0.02278, Final residual = 0.000751971, No Iterations 2
smoothSolver:  Solving for Uz, Initial residual = 0.0268071, Final residual = 0.000892846, No Iterations 2
GAMG:  Solving for p, Initial residual = 0.05814, Final residual = 0.00464444, No Iterations 2
time step continuity errors : sum local = 3.01178e-05, global = 3.85692e-06, cumulative = 1.76579e-05
smoothSolver:  Solving for omega, Initial residual = 0.000478523, Final residual = 1.82641e-05, No Iterations 1
smoothSolver:  Solving for k, Initial residual = 0.025183, Final residual = 0.000936797, No Iterations 1
ExecutionTime = 8.26 s  ClockTime = 8 s

forces forcesFish write:
    Sum of forces
        Total    : (0.223983 0.00190181 0.000237679)
        Pressure : (0.0493695 0.00189877 0.000224643)
        Viscous  : (0.174614 3.04881e-06 1.30362e-05)
    Sum of moments
        Total    : (-1.80485e-05 -4.47555e-06 0.0014517)
        Pressure : (-1.82237e-05 -6.28208e-06 0.0013666)
        Viscous  : (1.7518e-07 1.80653e-06 8.51001e-05)
    writing force and moment files.

Time = 14

smoothSolver:  Solving for Ux, Initial residual = 0.000445999, Final residual = 1.09856e-05, No Iterations 2
smoothSolver:  Solving for Uy, Initial residual = 0.0303237, Final residual = 0.00105652, No Iterations 2
smoothSolver:  Solving for Uz, Initial residual = 0.026555, Final residual = 0.000959986, No Iterations 2
GAMG:  Solving for p, Initial residual = 0.0570314, Final residual = 0.00402799, No Iterations 2
time step continuity errors : sum local = 2.39213e-05, global = 3.23211e-06, cumulative = 2.089e-05
smoothSolver:  Solving for omega, Initial residual = 0.000415291, Final residual = 1.6011e-05, No Iterations 1
smoothSolver:  Solving for k, Initial residual = 0.0220408, Final residual = 0.000824989, No Iterations 1
ExecutionTime = 8.8 s  ClockTime = 8 s

forces forcesFish write:
    Sum of forces
        Total    : (0.26221 0.00257217 0.000919532)
        Pressure : (0.0881741 0.00254565 0.000900519)
        Viscous  : (0.174036 2.6517e-05 1.90132e-05)
    Sum of moments
        Total    : (-1.95201e-05 -0.000289994 0.00247151)
        Pressure : (-1.96801e-05 -0.000291389 0.00238155)
        Viscous  : (1.59993e-07 1.39519e-06 8.99622e-05)
    writing force and moment files.

Time = 15

smoothSolver:  Solving for Ux, Initial residual = 0.000421927, Final residual = 9.91835e-06, No Iterations 2
smoothSolver:  Solving for Uy, Initial residual = 0.0439202, Final residual = 0.00167217, No Iterations 2
smoothSolver:  Solving for Uz, Initial residual = 0.0270172, Final residual = 0.00111998, No Iterations 2
GAMG:  Solving for p, Initial residual = 0.0582547, Final residual = 0.00360545, No Iterations 2
time step continuity errors : sum local = 1.99685e-05, global = 2.53768e-06, cumulative = 2.34277e-05
smoothSolver:  Solving for omega, Initial residual = 0.000361948, Final residual = 1.40757e-05, No Iterations 1
smoothSolver:  Solving for k, Initial residual = 0.0193942, Final residual = 0.000729601, No Iterations 1
ExecutionTime = 9.33 s  ClockTime = 9 s

forces forcesFish write:
    Sum of forces
        Total    : (0.279005 0.00310371 0.001554)
        Pressure : (0.105629 0.00305906 0.00152985)
        Viscous  : (0.173376 4.46546e-05 2.41472e-05)
    Sum of moments
        Total    : (-1.78059e-05 -0.000496847 0.00292137)
        Pressure : (-1.79682e-05 -0.000497862 0.0028274)
        Viscous  : (1.62314e-07 1.01523e-06 9.39707e-05)
    writing force and moment files.

Time = 16

smoothSolver:  Solving for Ux, Initial residual = 0.000400367, Final residual = 8.9302e-06, No Iterations 2
smoothSolver:  Solving for Uy, Initial residual = 0.0341519, Final residual = 0.00128855, No Iterations 2
smoothSolver:  Solving for Uz, Initial residual = 0.0252483, Final residual = 0.00105139, No Iterations 2
GAMG:  Solving for p, Initial residual = 0.0610651, Final residual = 0.00379477, No Iterations 2
time step continuity errors : sum local = 2.0279e-05, global = 1.7489e-06, cumulative = 2.51766e-05
smoothSolver:  Solving for omega, Initial residual = 0.000316514, Final residual = 1.24022e-05, No Iterations 1
smoothSolver:  Solving for k, Initial residual = 0.0171581, Final residual = 0.000648176, No Iterations 1
ExecutionTime = 9.93 s  ClockTime = 9 s

forces forcesFish write:
    Sum of forces
        Total    : (0.27883 0.00356864 0.00194375)
        Pressure : (0.106159 0.00351178 0.00191625)
        Viscous  : (0.172671 5.68603e-05 2.74993e-05)
    Sum of moments
        Total    : (-1.33084e-05 -0.000582169 0.00293654)
        Pressure : (-1.3486e-05 -0.000582904 0.00283947)
        Viscous  : (1.77578e-07 7.35327e-07 9.70697e-05)
    writing force and moment files.

Time = 17

smoothSolver:  Solving for Ux, Initial residual = 0.000368039, Final residual = 7.91511e-06, No Iterations 2
smoothSolver:  Solving for Uy, Initial residual = 0.0255432, Final residual = 0.000890353, No Iterations 2
smoothSolver:  Solving for Uz, Initial residual = 0.0219244, Final residual = 0.000836309, No Iterations 2
GAMG:  Solving for p, Initial residual = 0.0621058, Final residual = 0.00368388, No Iterations 2
time step continuity errors : sum local = 1.95479e-05, global = 6.29626e-07, cumulative = 2.58062e-05
smoothSolver:  Solving for omega, Initial residual = 0.00027746, Final residual = 1.09303e-05, No Iterations 1
smoothSolver:  Solving for k, Initial residual = 0.0152476, Final residual = 0.000578043, No Iterations 1
ExecutionTime = 10.44 s  ClockTime = 10 s

forces forcesFish write:
    Sum of forces
        Total    : (0.268208 0.00408425 0.00191353)
        Pressure : (0.0962556 0.00402039 0.00188486)
        Viscous  : (0.171953 6.38639e-05 2.86726e-05)
    Sum of moments
        Total    : (-7.25172e-06 -0.000530325 0.00268562)
        Pressure : (-7.4477e-06 -0.00053092 0.00258628)
        Viscous  : (1.95985e-07 5.956e-07 9.93387e-05)
    writing force and moment files.

Time = 18

smoothSolver:  Solving for Ux, Initial residual = 0.000334582, Final residual = 6.9319e-06, No Iterations 2
smoothSolver:  Solving for Uy, Initial residual = 0.0198845, Final residual = 0.000598369, No Iterations 2
smoothSolver:  Solving for Uz, Initial residual = 0.0180891, Final residual = 0.000585203, No Iterations 2
GAMG:  Solving for p, Initial residual = 0.0599147, Final residual = 0.00333403, No Iterations 2
time step continuity errors : sum local = 1.79663e-05, global = -4.83918e-07, cumulative = 2.53223e-05
smoothSolver:  Solving for omega, Initial residual = 0.000243685, Final residual = 9.63302e-06, No Iterations 1
smoothSolver:  Solving for k, Initial residual = 0.0135953, Final residual = 0.000516943, No Iterations 1
ExecutionTime = 10.97 s  ClockTime = 10 s

forces forcesFish write:
    Sum of forces
        Total    : (0.252785 0.00475442 0.00145252)
        Pressure : (0.0815407 0.0046874 0.00142459)
        Viscous  : (0.171245 6.7019e-05 2.79326e-05)
    Sum of moments
        Total    : (-6.62321e-07 -0.000360341 0.00232076)
        Pressure : (-8.72478e-07 -0.000360941 0.00221988)
        Viscous  : (2.10157e-07 6.0034e-07 0.000100884)
    writing force and moment files.

Time = 19

smoothSolver:  Solving for Ux, Initial residual = 0.000303622, Final residual = 2.96242e-05, No Iterations 1
smoothSolver:  Solving for Uy, Initial residual = 0.0163526, Final residual = 0.000389603, No Iterations 2
smoothSolver:  Solving for Uz, Initial residual = 0.0155241, Final residual = 0.000394013, No Iterations 2
GAMG:  Solving for p, Initial residual = 0.0545283, Final residual = 0.00290662, No Iterations 2
time step continuity errors : sum local = 1.6147e-05, global = -1.35958e-06, cumulative = 2.39627e-05
smoothSolver:  Solving for omega, Initial residual = 0.000214344, Final residual = 8.49178e-06, No Iterations 1
smoothSolver:  Solving for k, Initial residual = 0.0121651, Final residual = 0.000463706, No Iterations 1
ExecutionTime = 11.49 s  ClockTime = 11 s

forces forcesFish write:
    Sum of forces
        Total    : (0.237578 0.0055683 0.000674811)
        Pressure : (0.0669298 0.00550018 0.000648984)
        Viscous  : (0.170648 6.81227e-05 2.58271e-05)
    Sum of moments
        Total    : (5.33628e-06 -0.000119759 0.0019692)
        Pressure : (5.12005e-06 -0.000120485 0.00186717)
        Viscous  : (2.16223e-07 7.26047e-07 0.000102028)
    writing force and moment files.

Time = 20

smoothSolver:  Solving for Ux, Initial residual = 0.000276672, Final residual = 2.67872e-05, No Iterations 1
smoothSolver:  Solving for Uy, Initial residual = 0.0148351, Final residual = 0.00031723, No Iterations 2
smoothSolver:  Solving for Uz, Initial residual = 0.014616, Final residual = 0.00037192, No Iterations 2
GAMG:  Solving for p, Initial residual = 0.0472901, Final residual = 0.00250674, No Iterations 2
time step continuity errors : sum local = 1.43921e-05, global = -2.0484e-06, cumulative = 2.19143e-05
smoothSolver:  Solving for omega, Initial residual = 0.000188764, Final residual = 7.49179e-06, No Iterations 1
smoothSolver:  Solving for k, Initial residual = 0.0109158, Final residual = 0.000416883, No Iterations 1
ExecutionTime = 11.99 s  ClockTime = 12 s

forces forcesFish write:
    Sum of forces
        Total    : (0.225726 0.00638301 -0.00021835)
        Pressure : (0.0556637 0.00631428 -0.000241452)
        Viscous  : (0.170062 6.8735e-05 2.31024e-05)
    Sum of moments
        Total    : (9.76459e-06 0.000129234 0.00169724)
        Pressure : (9.55153e-06 0.000128318 0.00159439)
        Viscous  : (2.13059e-07 9.15956e-07 0.000102857)
    writing force and moment files.

Time = 21

smoothSolver:  Solving for Ux, Initial residual = 0.000244712, Final residual = 2.41751e-05, No Iterations 1
smoothSolver:  Solving for Uy, Initial residual = 0.0145132, Final residual = 0.000339845, No Iterations 2
smoothSolver:  Solving for Uz, Initial residual = 0.0142007, Final residual = 0.000414666, No Iterations 2
GAMG:  Solving for p, Initial residual = 0.0423203, Final residual = 0.00223914, No Iterations 2
time step continuity errors : sum local = 1.31695e-05, global = -2.61648e-06, cumulative = 1.92978e-05
smoothSolver:  Solving for omega, Initial residual = 0.000166371, Final residual = 6.61607e-06, No Iterations 1
smoothSolver:  Solving for k, Initial residual = 0.00981317, Final residual = 0.00037529, No Iterations 1
ExecutionTime = 12.51 s  ClockTime = 12 s

forces forcesFish write:
    Sum of forces
        Total    : (0.218612 0.00701308 -0.00102081)
        Pressure : (0.0491289 0.00694314 -0.0010413)
        Viscous  : (0.169483 6.9941e-05 2.0485e-05)
    Sum of moments
        Total    : (1.20168e-05 0.000330736 0.00152145)
        Pressure : (1.18151e-05 0.000329626 0.0014179)
        Viscous  : (2.01702e-07 1.10916e-06 0.000103552)
    writing force and moment files.

Time = 22

smoothSolver:  Solving for Ux, Initial residual = 0.00021212, Final residual = 4.41509e-06, No Iterations 2
smoothSolver:  Solving for Uy, Initial residual = 0.0143723, Final residual = 0.000360559, No Iterations 2
smoothSolver:  Solving for Uz, Initial residual = 0.0136536, Final residual = 0.000430956, No Iterations 2
GAMG:  Solving for p, Initial residual = 0.0396607, Final residual = 0.00216646, No Iterations 2
time step continuity errors : sum local = 1.28959e-05, global = -3.0289e-06, cumulative = 1.62689e-05
smoothSolver:  Solving for omega, Initial residual = 0.000146692, Final residual = 5.84983e-06, No Iterations 1
smoothSolver:  Solving for k, Initial residual = 0.00883941, Final residual = 0.00033833, No Iterations 1
ExecutionTime = 13.01 s  ClockTime = 13 s

forces forcesFish write:
    Sum of forces
        Total    : (0.215842 0.00732639 -0.00160353)
        Pressure : (0.0470104 0.00725418 -0.00162209)
        Viscous  : (0.168831 7.22048e-05 1.85605e-05)
    Sum of moments
        Total    : (1.20447e-05 0.000455382 0.0014198)
        Pressure : (1.18598e-05 0.000454133 0.0013157)
        Viscous  : (1.84927e-07 1.24925e-06 0.000104108)
    writing force and moment files.

Time = 23

smoothSolver:  Solving for Ux, Initial residual = 0.000180339, Final residual = 3.89844e-06, No Iterations 2
smoothSolver:  Solving for Uy, Initial residual = 0.0139547, Final residual = 0.000346058, No Iterations 2
smoothSolver:  Solving for Uz, Initial residual = 0.0127945, Final residual = 0.00039616, No Iterations 2
GAMG:  Solving for p, Initial residual = 0.0377818, Final residual = 0.00205231, No Iterations 2
time step continuity errors : sum local = 1.22148e-05, global = -3.16234e-06, cumulative = 1.31066e-05
smoothSolver:  Solving for omega, Initial residual = 0.00012933, Final residual = 5.17881e-06, No Iterations 1
smoothSolver:  Solving for k, Initial residual = 0.00797293, Final residual = 0.000305275, No Iterations 1
ExecutionTime = 13.52 s  ClockTime = 13 s

forces forcesFish write:
    Sum of forces
        Total    : (0.216325 0.00730995 -0.00192735)
        Pressure : (0.0481408 0.0072343 -0.00194492)
        Viscous  : (0.168184 7.56434e-05 1.75698e-05)
    Sum of moments
        Total    : (1.026e-05 0.000501909 0.00136204)
        Pressure : (1.00938e-05 0.000500599 0.00125736)
        Viscous  : (1.6618e-07 1.30962e-06 0.00010468)
    writing force and moment files.

Time = 24

smoothSolver:  Solving for Ux, Initial residual = 0.000159776, Final residual = 3.4483e-06, No Iterations 2
smoothSolver:  Solving for Uy, Initial residual = 0.0132991, Final residual = 0.000296864, No Iterations 2
smoothSolver:  Solving for Uz, Initial residual = 0.0117114, Final residual = 0.000318117, No Iterations 2
GAMG:  Solving for p, Initial residual = 0.0357871, Final residual = 0.00187018, No Iterations 2
time step continuity errors : sum local = 1.10071e-05, global = -3.05839e-06, cumulative = 1.00482e-05
smoothSolver:  Solving for omega, Initial residual = 0.00011396, Final residual = 4.58776e-06, No Iterations 1
smoothSolver:  Solving for k, Initial residual = 0.00719409, Final residual = 0.000275439, No Iterations 1
ExecutionTime = 14.07 s  ClockTime = 14 s

forces forcesFish write:
    Sum of forces
        Total    : (0.21872 0.00695411 -0.00194992)
        Pressure : (0.0511833 0.00687424 -0.00196751)
        Viscous  : (0.167536 7.98638e-05 1.7587e-05)
    Sum of moments
        Total    : (7.19043e-06 0.000470117 0.00131781)
        Pressure : (7.04171e-06 0.000468837 0.00121252)
        Viscous  : (1.48713e-07 1.27993e-06 0.000105291)
    writing force and moment files.

Time = 25

smoothSolver:  Solving for Ux, Initial residual = 0.000148057, Final residual = 3.05533e-06, No Iterations 2
smoothSolver:  Solving for Uy, Initial residual = 0.012377, Final residual = 0.000237614, No Iterations 2
smoothSolver:  Solving for Uz, Initial residual = 0.0105533, Final residual = 0.000224879, No Iterations 2
GAMG:  Solving for p, Initial residual = 0.0342796, Final residual = 0.00168449, No Iterations 2
time step continuity errors : sum local = 9.73415e-06, global = -2.78087e-06, cumulative = 7.26731e-06
smoothSolver:  Solving for omega, Initial residual = 0.000100306, Final residual = 4.06412e-06, No Iterations 1
smoothSolver:  Solving for k, Initial residual = 0.00649448, Final residual = 0.000248557, No Iterations 1
ExecutionTime = 14.61 s  ClockTime = 14 s

forces forcesFish write:
    Sum of forces
        Total    : (0.221725 0.00630374 -0.00167866)
        Pressure : (0.0548365 0.00621935 -0.00169704)
        Viscous  : (0.166888 8.43913e-05 1.83774e-05)
    Sum of moments
        Total    : (3.50626e-06 0.000371128 0.00126683)
        Pressure : (3.37156e-06 0.000369962 0.0011609)
        Viscous  : (1.34702e-07 1.16691e-06 0.000105924)
    writing force and moment files.

Time = 26

smoothSolver:  Solving for Ux, Initial residual = 0.000146379, Final residual = 1.36186e-05, No Iterations 1
smoothSolver:  Solving for Uy, Initial residual = 0.0112065, Final residual = 0.00106392, No Iterations 1
smoothSolver:  Solving for Uz, Initial residual = 0.00963087, Final residual = 0.000883785, No Iterations 1
GAMG:  Solving for p, Initial residual = 0.0322979, Final residual = 0.0014851, No Iterations 2
time step continuity errors : sum local = 8.4064e-06, global = -2.3498e-06, cumulative = 4.91751e-06
smoothSolver:  Solving for omega, Initial residual = 8.81297e-05, Final residual = 3.59614e-06, No Iterations 1
smoothSolver:  Solving for k, Initial residual = 0.00586282, Final residual = 0.000224244, No Iterations 1
ExecutionTime = 15.09 s  ClockTime = 15 s

forces forcesFish write:
    Sum of forces
        Total    : (0.224311 0.00552413 -0.00122003)
        Pressure : (0.0580099 0.00543572 -0.00123955)
        Viscous  : (0.166301 8.841e-05 1.95127e-05)
    Sum of moments
        Total    : (-8.51644e-09 0.000238518 0.00120717)
        Pressure : (-1.35524e-07 0.000237498 0.00110072)
        Viscous  : (1.27007e-07 1.02006e-06 0.000106456)
    writing force and moment files.

Time = 27

smoothSolver:  Solving for Ux, Initial residual = 0.000146307, Final residual = 1.28077e-05, No Iterations 1
smoothSolver:  Solving for Uy, Initial residual = 0.00996459, Final residual = 0.000946886, No Iterations 1
smoothSolver:  Solving for Uz, Initial residual = 0.00913985, Final residual = 0.000838274, No Iterations 1
GAMG:  Solving for p, Initial residual = 0.0302662, Final residual = 0.00134025, No Iterations 2
time step continuity errors : sum local = 7.44812e-06, global = -1.82876e-06, cumulative = 3.08874e-06
smoothSolver:  Solving for omega, Initial residual = 7.72579e-05, Final residual = 3.18039e-06, No Iterations 1
smoothSolver:  Solving for k, Initial residual = 0.00528646, Final residual = 0.000202047, No Iterations 1
ExecutionTime = 15.56 s  ClockTime = 15 s

forces forcesFish write:
    Sum of forces
        Total    : (0.225966 0.00473793 -0.000680511)
        Pressure : (0.060249 0.0046459 -0.000701193)
        Viscous  : (0.165717 9.20313e-05 2.06825e-05)
    Sum of moments
        Total    : (-2.84475e-06 9.89746e-05 0.00114407)
        Pressure : (-2.96607e-06 9.81205e-05 0.00103713)
        Viscous  : (1.21315e-07 8.54086e-07 0.00010694)
    writing force and moment files.

Time = 28

smoothSolver:  Solving for Ux, Initial residual = 0.000141712, Final residual = 1.19071e-05, No Iterations 1
smoothSolver:  Solving for Uy, Initial residual = 0.00850892, Final residual = 0.0008188, No Iterations 1
smoothSolver:  Solving for Uz, Initial residual = 0.00838769, Final residual = 0.000798088, No Iterations 1
GAMG:  Solving for p, Initial residual = 0.0283376, Final residual = 0.00127718, No Iterations 2
time step continuity errors : sum local = 7.00565e-06, global = -1.27093e-06, cumulative = 1.81782e-06
smoothSolver:  Solving for omega, Initial residual = 6.75379e-05, Final residual = 2.81033e-06, No Iterations 1
smoothSolver:  Solving for k, Initial residual = 0.00476184, Final residual = 0.000181855, No Iterations 1
ExecutionTime = 16.06 s  ClockTime = 16 s

forces forcesFish write:
    Sum of forces
        Total    : (0.226575 0.00405489 -0.000160679)
        Pressure : (0.061436 0.00395983 -0.000182449)
        Viscous  : (0.165139 9.50534e-05 2.17699e-05)
    Sum of moments
        Total    : (-4.68587e-06 -2.45887e-05 0.00108621)
        Pressure : (-4.80304e-06 -2.52744e-05 0.000978873)
        Viscous  : (1.17172e-07 6.85737e-07 0.000107339)
    writing force and moment files.

Time = 29

smoothSolver:  Solving for Ux, Initial residual = 0.000133133, Final residual = 1.09514e-05, No Iterations 1
smoothSolver:  Solving for Uy, Initial residual = 0.00712573, Final residual = 0.00068569, No Iterations 1
smoothSolver:  Solving for Uz, Initial residual = 0.00742785, Final residual = 0.00072515, No Iterations 1
GAMG:  Solving for p, Initial residual = 0.0269532, Final residual = 0.00126088, No Iterations 2
time step continuity errors : sum local = 6.87319e-06, global = -6.59226e-07, cumulative = 1.15859e-06
smoothSolver:  Solving for omega, Initial residual = 5.8844e-05, Final residual = 2.48056e-06, No Iterations 1
smoothSolver:  Solving for k, Initial residual = 0.00428278, Final residual = 0.00016345, No Iterations 1
ExecutionTime = 16.55 s  ClockTime = 16 s

forces forcesFish write:
    Sum of forces
        Total    : (0.226274 0.00353167 0.000277047)
        Pressure : (0.0617043 0.00343423 0.000254405)
        Viscous  : (0.16457 9.74372e-05 2.26422e-05)
    Sum of moments
        Total    : (-5.47274e-06 -0.000119985 0.00103924)
        Pressure : (-5.58609e-06 -0.000120518 0.000931608)
        Viscous  : (1.13353e-07 5.32952e-07 0.000107631)
    writing force and moment files.

Time = 30

smoothSolver:  Solving for Ux, Initial residual = 0.000122696, Final residual = 1.00175e-05, No Iterations 1
smoothSolver:  Solving for Uy, Initial residual = 0.00604841, Final residual = 0.000562546, No Iterations 1
smoothSolver:  Solving for Uz, Initial residual = 0.00660483, Final residual = 0.000635002, No Iterations 1
GAMG:  Solving for p, Initial residual = 0.0252677, Final residual = 0.0011905, No Iterations 2
time step continuity errors : sum local = 6.49054e-06, global = -2.4245e-08, cumulative = 1.13435e-06
smoothSolver:  Solving for omega, Initial residual = 5.10736e-05, Final residual = 2.18664e-06, No Iterations 1
smoothSolver:  Solving for k, Initial residual = 0.00384302, Final residual = 0.00014661, No Iterations 1
ExecutionTime = 17.06 s  ClockTime = 17 s

forces forcesFish write:
    Sum of forces
        Total    : (0.225313 0.00317459 0.00060831)
        Pressure : (0.0613007 0.00307533 0.00058509)
        Viscous  : (0.164012 9.92542e-05 2.32197e-05)
    Sum of moments
        Total    : (-5.31033e-06 -0.000184412 0.00100488)
        Pressure : (-5.41901e-06 -0.000184817 0.000897058)
        Viscous  : (1.08683e-07 4.0509e-07 0.000107822)
    writing force and moment files.

Time = 31

smoothSolver:  Solving for Ux, Initial residual = 0.000112522, Final residual = 9.18306e-06, No Iterations 1
smoothSolver:  Solving for Uy, Initial residual = 0.0052206, Final residual = 0.000452693, No Iterations 1
smoothSolver:  Solving for Uz, Initial residual = 0.00597308, Final residual = 0.000530473, No Iterations 1
GAMG:  Solving for p, Initial residual = 0.0231279, Final residual = 0.00107193, No Iterations 2
time step continuity errors : sum local = 5.87271e-06, global = 5.21195e-07, cumulative = 1.65554e-06
smoothSolver:  Solving for omega, Initial residual = 4.41432e-05, Final residual = 1.92565e-06, No Iterations 1
smoothSolver:  Solving for k, Initial residual = 0.00343853, Final residual = 0.000131192, No Iterations 1
ExecutionTime = 17.59 s  ClockTime = 17 s

forces forcesFish write:
    Sum of forces
        Total    : (0.223962 0.00298438 0.000811354)
        Pressure : (0.0604928 0.00288374 0.000787872)
        Viscous  : (0.163469 0.000100636 2.34816e-05)
    Sum of moments
        Total    : (-4.36436e-06 -0.000215923 0.000985314)
        Pressure : (-4.46698e-06 -0.000216232 0.000877397)
        Viscous  : (1.02626e-07 3.08922e-07 0.000107918)
    writing force and moment files.

Time = 32

smoothSolver:  Solving for Ux, Initial residual = 0.000104257, Final residual = 8.49106e-06, No Iterations 1
smoothSolver:  Solving for Uy, Initial residual = 0.0046173, Final residual = 0.000359156, No Iterations 1
smoothSolver:  Solving for Uz, Initial residual = 0.00550435, Final residual = 0.000441234, No Iterations 1
GAMG:  Solving for p, Initial residual = 0.0212425, Final residual = 0.000944553, No Iterations 2
time step continuity errors : sum local = 5.21589e-06, global = 9.25615e-07, cumulative = 2.58115e-06
smoothSolver:  Solving for omega, Initial residual = 3.79816e-05, Final residual = 1.69527e-06, No Iterations 1
smoothSolver:  Solving for k, Initial residual = 0.0030671, Final residual = 0.000117118, No Iterations 1
ExecutionTime = 18.1 s  ClockTime = 18 s

forces forcesFish write:
    Sum of forces
        Total    : (0.222472 0.00295163 0.000874306)
        Pressure : (0.0595303 0.0028499 0.000850835)
        Viscous  : (0.162942 0.000101728 2.34701e-05)
    Sum of moments
        Total    : (-2.87937e-06 -0.000214861 0.000981432)
        Pressure : (-2.97427e-06 -0.000215104 0.000873503)
        Viscous  : (9.48927e-08 2.429e-07 0.000107929)
    writing force and moment files.

Time = 33

smoothSolver:  Solving for Ux, Initial residual = 9.75878e-05, Final residual = 7.93073e-06, No Iterations 1
smoothSolver:  Solving for Uy, Initial residual = 0.00421684, Final residual = 0.000293487, No Iterations 1
smoothSolver:  Solving for Uz, Initial residual = 0.00517153, Final residual = 0.000388147, No Iterations 1
GAMG:  Solving for p, Initial residual = 0.0195825, Final residual = 0.000806311, No Iterations 2
time step continuity errors : sum local = 4.49587e-06, global = 1.10193e-06, cumulative = 3.68309e-06
smoothSolver:  Solving for omega, Initial residual = 3.25247e-05, Final residual = 1.49254e-06, No Iterations 1
smoothSolver:  Solving for k, Initial residual = 0.00272588, Final residual = 0.000104281, No Iterations 1
ExecutionTime = 18.58 s  ClockTime = 18 s

forces forcesFish write:
    Sum of forces
        Total    : (0.221038 0.00304672 0.000807328)
        Pressure : (0.0586073 0.00294407 0.00078406)
        Viscous  : (0.162431 0.000102647 2.32678e-05)
    Sum of moments
        Total    : (-1.15081e-06 -0.000186025 0.000990871)
        Pressure : (-1.23681e-06 -0.000186228 0.000883)
        Viscous  : (8.59957e-08 2.02538e-07 0.000107871)
    writing force and moment files.

Time = 34

smoothSolver:  Solving for Ux, Initial residual = 8.95529e-05, Final residual = 7.37656e-06, No Iterations 1
smoothSolver:  Solving for Uy, Initial residual = 0.00395171, Final residual = 0.00025855, No Iterations 1
smoothSolver:  Solving for Uz, Initial residual = 0.0049245, Final residual = 0.000364751, No Iterations 1
GAMG:  Solving for p, Initial residual = 0.0179656, Final residual = 0.000664055, No Iterations 2
time step continuity errors : sum local = 3.74087e-06, global = 9.97491e-07, cumulative = 4.68058e-06
smoothSolver:  Solving for omega, Initial residual = 2.77154e-05, Final residual = 1.31479e-06, No Iterations 1
smoothSolver:  Solving for k, Initial residual = 0.00241196, Final residual = 9.25699e-05, No Iterations 1
ExecutionTime = 19.07 s  ClockTime = 19 s

forces forcesFish write:
    Sum of forces
        Total    : (0.219779 0.00322581 0.000638498)
        Pressure : (0.0578425 0.00312231 0.000615526)
        Viscous  : (0.161936 0.0001035 2.29712e-05)
    Sum of moments
        Total    : (5.33998e-07 -0.000137462 0.00100856)
        Pressure : (4.57499e-07 -0.000137639 0.000900798)
        Viscous  : (7.64986e-08 1.7704e-07 0.000107761)
    writing force and moment files.

Time = 35

smoothSolver:  Solving for Ux, Initial residual = 7.83288e-05, Final residual = 6.74415e-06, No Iterations 1
smoothSolver:  Solving for Uy, Initial residual = 0.00369311, Final residual = 0.000239134, No Iterations 1
smoothSolver:  Solving for Uz, Initial residual = 0.00463906, Final residual = 0.000341904, No Iterations 1
GAMG:  Solving for p, Initial residual = 0.0164126, Final residual = 0.000571638, No Iterations 2
time step continuity errors : sum local = 3.2513e-06, global = 7.47139e-07, cumulative = 5.42772e-06
smoothSolver:  Solving for omega, Initial residual = 2.34996e-05, Final residual = 1.15959e-06, No Iterations 1
smoothSolver:  Solving for k, Initial residual = 0.00212392, Final residual = 8.19244e-05, No Iterations 1
ExecutionTime = 19.55 s  ClockTime = 19 s

forces forcesFish write:
    Sum of forces
        Total    : (0.218741 0.0034354 0.000408783)
        Pressure : (0.0572829 0.00333106 0.000386102)
        Viscous  : (0.161458 0.000104336 2.26814e-05)
    Sum of moments
        Total    : (1.92602e-06 -7.95065e-05 0.00102714)
        Pressure : (1.85943e-06 -7.96632e-05 0.000919521)
        Viscous  : (6.65912e-08 1.56744e-07 0.00010762)
    writing force and moment files.

Time = 36

smoothSolver:  Solving for Ux, Initial residual = 6.73024e-05, Final residual = 6.07635e-06, No Iterations 1
smoothSolver:  Solving for Uy, Initial residual = 0.00339009, Final residual = 0.000223871, No Iterations 1
smoothSolver:  Solving for Uz, Initial residual = 0.00428428, Final residual = 0.000314015, No Iterations 1
GAMG:  Solving for p, Initial residual = 0.0151484, Final residual = 0.000512442, No Iterations 2
time step continuity errors : sum local = 2.93683e-06, global = 6.61858e-07, cumulative = 6.08957e-06
smoothSolver:  Solving for omega, Initial residual = 1.98269e-05, Final residual = 1.02421e-06, No Iterations 1
smoothSolver:  Solving for k, Initial residual = 0.00186089, Final residual = 7.23004e-05, No Iterations 1
ExecutionTime = 20.03 s  ClockTime = 20 s

forces forcesFish write:
    Sum of forces
        Total    : (0.217917 0.00361587 0.000170937)
        Pressure : (0.0569226 0.00351073 0.000148451)
        Viscous  : (0.160995 0.000105142 2.24857e-05)
    Sum of moments
        Total    : (2.84065e-06 -2.43941e-05 0.00103795)
        Pressure : (2.78359e-06 -2.45272e-05 0.000930489)
        Viscous  : (5.70523e-08 1.33135e-07 0.000107456)
    writing force and moment files.

Time = 37

smoothSolver:  Solving for Ux, Initial residual = 6.23538e-05, Final residual = 5.6415e-06, No Iterations 1
smoothSolver:  Solving for Uy, Initial residual = 0.00307402, Final residual = 0.000205061, No Iterations 1
smoothSolver:  Solving for Uz, Initial residual = 0.00389492, Final residual = 0.000282947, No Iterations 1
GAMG:  Solving for p, Initial residual = 0.0140951, Final residual = 0.000486346, No Iterations 2
time step continuity errors : sum local = 2.79804e-06, global = 6.72955e-07, cumulative = 6.76253e-06
smoothSolver:  Solving for omega, Initial residual = 1.66492e-05, Final residual = 9.06487e-07, No Iterations 1
smoothSolver:  Solving for k, Initial residual = 0.00162167, Final residual = 6.36385e-05, No Iterations 1
ExecutionTime = 20.5 s  ClockTime = 20 s

forces forcesFish write:
    Sum of forces
        Total    : (0.217272 0.00372559 -2.80332e-05)
        Pressure : (0.0567258 0.00361972 -5.04479e-05)
        Viscous  : (0.160546 0.000105864 2.24146e-05)
    Sum of moments
        Total    : (3.21933e-06 1.82672e-05 0.00103554)
        Pressure : (3.17075e-06 1.81668e-05 0.000928271)
        Viscous  : (4.85811e-08 1.00452e-07 0.000107268)
    writing force and moment files.

Time = 38

smoothSolver:  Solving for Ux, Initial residual = 5.86319e-05, Final residual = 5.28714e-06, No Iterations 1
smoothSolver:  Solving for Uy, Initial residual = 0.00276057, Final residual = 0.000182877, No Iterations 1
smoothSolver:  Solving for Uz, Initial residual = 0.00350851, Final residual = 0.000243427, No Iterations 1
GAMG:  Solving for p, Initial residual = 0.0131136, Final residual = 0.000488711, No Iterations 2
time step continuity errors : sum local = 2.81129e-06, global = 5.35259e-07, cumulative = 7.29779e-06
smoothSolver:  Solving for omega, Initial residual = 1.39202e-05, Final residual = 8.0439e-07, No Iterations 1
smoothSolver:  Solving for k, Initial residual = 0.00140514, Final residual = 5.58779e-05, No Iterations 1
ExecutionTime = 20.97 s  ClockTime = 20 s

forces forcesFish write:
    Sum of forces
        Total    : (0.216754 0.00375661 -0.00016832)
        Pressure : (0.0566406 0.00365016 -0.000190786)
        Viscous  : (0.160113 0.000106445 2.24654e-05)
    Sum of moments
        Total    : (3.12961e-06 4.56894e-05 0.00101979)
        Pressure : (3.08809e-06 4.56313e-05 0.000912738)
        Viscous  : (4.15192e-08 5.81518e-08 0.000107055)
    writing force and moment files.

Time = 39

smoothSolver:  Solving for Ux, Initial residual = 5.47322e-05, Final residual = 4.95489e-06, No Iterations 1
smoothSolver:  Solving for Uy, Initial residual = 0.00247966, Final residual = 0.000161874, No Iterations 1
smoothSolver:  Solving for Uz, Initial residual = 0.00318129, Final residual = 0.000204822, No Iterations 1
GAMG:  Solving for p, Initial residual = 0.0122116, Final residual = 0.000479188, No Iterations 2
time step continuity errors : sum local = 2.7494e-06, global = 3.03139e-07, cumulative = 7.60093e-06
smoothSolver:  Solving for omega, Initial residual = 1.15947e-05, Final residual = 7.15861e-07, No Iterations 1
smoothSolver:  Solving for k, Initial residual = 0.00120995, Final residual = 4.89469e-05, No Iterations 1
ExecutionTime = 21.43 s  ClockTime = 21 s

forces forcesFish write:
    Sum of forces
        Total    : (0.216309 0.00371634 -0.000246809)
        Pressure : (0.0566149 0.00360951 -0.000269423)
        Viscous  : (0.159694 0.000106826 2.26133e-05)
    Sum of moments
        Total    : (2.68583e-06 5.85375e-05 0.000992667)
        Pressure : (2.64988e-06 5.85319e-05 0.000885852)
        Viscous  : (3.59507e-08 5.53456e-09 0.000106815)
    writing force and moment files.

Time = 40

smoothSolver:  Solving for Ux, Initial residual = 5.17144e-05, Final residual = 4.67852e-06, No Iterations 1
smoothSolver:  Solving for Uy, Initial residual = 0.00225329, Final residual = 0.000144712, No Iterations 1
smoothSolver:  Solving for Uz, Initial residual = 0.00292732, Final residual = 0.000175144, No Iterations 1
GAMG:  Solving for p, Initial residual = 0.0114229, Final residual = 0.000457083, No Iterations 2
time step continuity errors : sum local = 2.61279e-06, global = 6.46089e-08, cumulative = 7.66554e-06
smoothSolver:  Solving for omega, Initial residual = 9.62888e-06, Final residual = 6.39323e-07, No Iterations 1
smoothSolver:  Solving for k, Initial residual = 0.0010357, Final residual = 4.28093e-05, No Iterations 1
ExecutionTime = 21.93 s  ClockTime = 21 s

forces forcesFish write:
    Sum of forces
        Total    : (0.215898 0.00361893 -0.000268552)
        Pressure : (0.0566082 0.00351197 -0.000291371)
        Viscous  : (0.15929 0.000106962 2.28187e-05)
    Sum of moments
        Total    : (2.0196e-06 5.89605e-05 0.000957199)
        Pressure : (1.98782e-06 5.90111e-05 0.000850659)
        Viscous  : (3.17847e-08 -5.05734e-08 0.00010654)
    writing force and moment files.

Time = 41

smoothSolver:  Solving for Ux, Initial residual = 4.93181e-05, Final residual = 4.4416e-06, No Iterations 1
smoothSolver:  Solving for Uy, Initial residual = 0.00208265, Final residual = 0.000132162, No Iterations 1
smoothSolver:  Solving for Uz, Initial residual = 0.00271938, Final residual = 0.000153752, No Iterations 1
GAMG:  Solving for p, Initial residual = 0.0106959, Final residual = 0.000426445, No Iterations 2
time step continuity errors : sum local = 2.4278e-06, global = -1.30623e-07, cumulative = 7.53491e-06
smoothSolver:  Solving for omega, Initial residual = 7.98118e-06, Final residual = 5.73015e-07, No Iterations 1
smoothSolver:  Solving for k, Initial residual = 0.000881328, Final residual = 3.74044e-05, No Iterations 1
ExecutionTime = 22.45 s  ClockTime = 22 s

forces forcesFish write:
    Sum of forces
        Total    : (0.215495 0.00348379 -0.000245633)
        Pressure : (0.0565946 0.00337694 -0.000268677)
        Viscous  : (0.1589 0.000106851 2.30445e-05)
    Sum of moments
        Total    : (1.26552e-06 5.03355e-05 0.000917275)
        Pressure : (1.23673e-06 5.04404e-05 0.000811052)
        Viscous  : (2.87866e-08 -1.04922e-07 0.000106223)
    writing force and moment files.

Time = 42

smoothSolver:  Solving for Ux, Initial residual = 4.64927e-05, Final residual = 4.20341e-06, No Iterations 1
smoothSolver:  Solving for Uy, Initial residual = 0.00195671, Final residual = 0.000122745, No Iterations 1
smoothSolver:  Solving for Uz, Initial residual = 0.00254003, Final residual = 0.000140345, No Iterations 1
GAMG:  Solving for p, Initial residual = 0.00998487, Final residual = 0.000389284, No Iterations 2
time step continuity errors : sum local = 2.20803e-06, global = -2.52523e-07, cumulative = 7.28239e-06
smoothSolver:  Solving for omega, Initial residual = 6.61081e-06, Final residual = 5.15704e-07, No Iterations 1
smoothSolver:  Solving for k, Initial residual = 0.000745675, Final residual = 3.26706e-05, No Iterations 1
ExecutionTime = 22.95 s  ClockTime = 22 s

forces forcesFish write:
    Sum of forces
        Total    : (0.215087 0.00333145 -0.000194293)
        Pressure : (0.0565618 0.00322494 -0.000217541)
        Viscous  : (0.158525 0.000106512 2.32479e-05)
    Sum of moments
        Total    : (5.3872e-07 3.66034e-05 0.000876772)
        Pressure : (5.11866e-07 3.67566e-05 0.000770905)
        Viscous  : (2.68537e-08 -1.53193e-07 0.000105867)
    writing force and moment files.

Time = 43

smoothSolver:  Solving for Ux, Initial residual = 4.29915e-05, Final residual = 3.9511e-06, No Iterations 1
smoothSolver:  Solving for Uy, Initial residual = 0.00183515, Final residual = 0.000115217, No Iterations 1
smoothSolver:  Solving for Uz, Initial residual = 0.00238532, Final residual = 0.000132377, No Iterations 1
GAMG:  Solving for p, Initial residual = 0.00931337, Final residual = 0.000348133, No Iterations 2
time step continuity errors : sum local = 1.96847e-06, global = -2.77467e-07, cumulative = 7.00492e-06
smoothSolver:  Solving for omega, Initial residual = 5.47985e-06, Final residual = 4.65803e-07, No Iterations 1
smoothSolver:  Solving for k, Initial residual = 0.000627483, Final residual = 2.85451e-05, No Iterations 1
ExecutionTime = 23.42 s  ClockTime = 23 s

forces forcesFish write:
    Sum of forces
        Total    : (0.214672 0.00318034 -0.000130999)
        Pressure : (0.0565078 0.0030744 -0.000154391)
        Viscous  : (0.158164 0.000105945 2.3392e-05)
    Sum of moments
        Total    : (-7.56906e-08 2.14725e-05 0.000839052)
        Pressure : (-1.01058e-07 2.16663e-05 0.000733578)
        Viscous  : (2.53672e-08 -1.93735e-07 0.000105474)
    writing force and moment files.

Time = 44

smoothSolver:  Solving for Ux, Initial residual = 3.86921e-05, Final residual = 3.67341e-06, No Iterations 1
smoothSolver:  Solving for Uy, Initial residual = 0.00171313, Final residual = 0.000107874, No Iterations 1
smoothSolver:  Solving for Uz, Initial residual = 0.00222971, Final residual = 0.000125173, No Iterations 1
GAMG:  Solving for p, Initial residual = 0.00868635, Final residual = 0.000304684, No Iterations 2
time step continuity errors : sum local = 1.71833e-06, global = -2.63469e-07, cumulative = 6.74145e-06
smoothSolver:  Solving for omega, Initial residual = 4.5526e-06, Final residual = 4.22156e-07, No Iterations 1
smoothSolver:  Solving for k, Initial residual = 0.000525264, Final residual = 2.49589e-05, No Iterations 1
ExecutionTime = 23.88 s  ClockTime = 23 s

forces forcesFish write:
    Sum of forces
        Total    : (0.214256 0.00304728 -7.049e-05)
        Pressure : (0.0564392 0.00294209 -9.39616e-05)
        Viscous  : (0.157817 0.000105193 2.34716e-05)
    Sum of moments
        Total    : (-5.15061e-07 8.12961e-06 0.000807262)
        Pressure : (-5.39075e-07 8.356e-06 0.000702213)
        Viscous  : (2.40139e-08 -2.26389e-07 0.00010505)
    writing force and moment files.

Time = 45

smoothSolver:  Solving for Ux, Initial residual = 3.48176e-05, Final residual = 3.40422e-06, No Iterations 1
smoothSolver:  Solving for Uy, Initial residual = 0.00158907, Final residual = 0.000100137, No Iterations 1
smoothSolver:  Solving for Uz, Initial residual = 0.00208691, Final residual = 0.000117498, No Iterations 1
GAMG:  Solving for p, Initial residual = 0.00809885, Final residual = 0.000270472, No Iterations 2
time step continuity errors : sum local = 1.52234e-06, global = -2.72917e-07, cumulative = 6.46854e-06
smoothSolver:  Solving for omega, Initial residual = 3.79707e-06, Final residual = 7.73727e-08, No Iterations 2
smoothSolver:  Solving for k, Initial residual = 0.000437717, Final residual = 2.1863e-05, No Iterations 1
ExecutionTime = 24.39 s  ClockTime = 24 s

forces forcesFish write:
    Sum of forces
        Total    : (0.213849 0.0029451 -2.45406e-05)
        Pressure : (0.0563636 0.00284079 -4.80249e-05)
        Viscous  : (0.157485 0.000104312 2.34843e-05)
    Sum of moments
        Total    : (-7.47803e-07 -1.04732e-06 0.000783706)
        Pressure : (-7.70404e-07 -7.96763e-07 0.000679109)
        Viscous  : (2.26011e-08 -2.50561e-07 0.000104597)
    writing force and moment files.

Time = 46

smoothSolver:  Solving for Ux, Initial residual = 3.20883e-05, Final residual = 3.19275e-06, No Iterations 1
smoothSolver:  Solving for Uy, Initial residual = 0.00146356, Final residual = 9.15369e-05, No Iterations 1
smoothSolver:  Solving for Uz, Initial residual = 0.00195624, Final residual = 0.000109934, No Iterations 1
GAMG:  Solving for p, Initial residual = 0.00753989, Final residual = 0.000248672, No Iterations 2
time step continuity errors : sum local = 1.39776e-06, global = -2.92243e-07, cumulative = 6.17629e-06
smoothSolver:  Solving for omega, Initial residual = 3.12478e-06, Final residual = 7.02426e-08, No Iterations 2
smoothSolver:  Solving for k, Initial residual = 0.000363479, Final residual = 1.91977e-05, No Iterations 1
ExecutionTime = 24.86 s  ClockTime = 24 s

forces forcesFish write:
    Sum of forces
        Total    : (0.213453 0.00287827 2.90902e-07)
        Pressure : (0.0562857 0.00277492 -2.31496e-05)
        Viscous  : (0.157167 0.000103349 2.34405e-05)
    Sum of moments
        Total    : (-7.88444e-07 -4.99952e-06 0.000768786)
        Pressure : (-8.09418e-07 -4.73161e-06 0.000664664)
        Viscous  : (2.09738e-08 -2.67917e-07 0.000104122)
    writing force and moment files.

Time = 47

smoothSolver:  Solving for Ux, Initial residual = 3.06807e-05, Final residual = 3.04817e-06, No Iterations 1
smoothSolver:  Solving for Uy, Initial residual = 0.00134111, Final residual = 8.28406e-05, No Iterations 1
smoothSolver:  Solving for Uz, Initial residual = 0.00183788, Final residual = 0.00010345, No Iterations 1
GAMG:  Solving for p, Initial residual = 0.00703954, Final residual = 0.000235437, No Iterations 2
time step continuity errors : sum local = 1.32228e-06, global = -2.84841e-07, cumulative = 5.89145e-06
smoothSolver:  Solving for omega, Initial residual = 2.58975e-06, Final residual = 6.29871e-08, No Iterations 2
smoothSolver:  Solving for k, Initial residual = 0.00030104, Final residual = 1.6903e-05, No Iterations 1
ExecutionTime = 25.34 s  ClockTime = 25 s

forces forcesFish write:
    Sum of forces
        Total    : (0.213071 0.00284347 3.28246e-06)
        Pressure : (0.0562084 0.00274112 -2.00749e-05)
        Viscous  : (0.156863 0.000102346 2.33574e-05)
    Sum of moments
        Total    : (-6.84804e-07 -3.99143e-06 0.00076124)
        Pressure : (-7.03864e-07 -3.71086e-06 0.00065761)
        Viscous  : (1.90603e-08 -2.80572e-07 0.00010363)
    writing force and moment files.

Time = 48

smoothSolver:  Solving for Ux, Initial residual = 2.99573e-05, Final residual = 2.94017e-06, No Iterations 1
smoothSolver:  Solving for Uy, Initial residual = 0.00123253, Final residual = 7.49136e-05, No Iterations 1
smoothSolver:  Solving for Uz, Initial residual = 0.00172589, Final residual = 9.71465e-05, No Iterations 1
GAMG:  Solving for p, Initial residual = 0.00659221, Final residual = 0.00022109, No Iterations 2
time step continuity errors : sum local = 1.24097e-06, global = -2.53071e-07, cumulative = 5.63838e-06
smoothSolver:  Solving for omega, Initial residual = 2.1629e-06, Final residual = 5.63874e-08, No Iterations 2
smoothSolver:  Solving for k, Initial residual = 0.00024894, Final residual = 1.49287e-05, No Iterations 1
ExecutionTime = 25.83 s  ClockTime = 25 s

forces forcesFish write:
    Sum of forces
        Total    : (0.212707 0.00283358 -1.21276e-05)
        Pressure : (0.0561342 0.00273225 -3.53844e-05)
        Viscous  : (0.156573 0.000101331 2.32568e-05)
    Sum of moments
        Total    : (-4.93484e-07 8.97135e-07 0.000759108)
        Pressure : (-5.10369e-07 1.18855e-06 0.000655985)
        Viscous  : (1.68849e-08 -2.91417e-07 0.000103124)
    writing force and moment files.

Time = 49

smoothSolver:  Solving for Ux, Initial residual = 2.90674e-05, Final residual = 2.83445e-06, No Iterations 1
smoothSolver:  Solving for Uy, Initial residual = 0.0011506, Final residual = 6.87096e-05, No Iterations 1
smoothSolver:  Solving for Uz, Initial residual = 0.00160965, Final residual = 9.02466e-05, No Iterations 1
GAMG:  Solving for p, Initial residual = 0.00616432, Final residual = 0.000209024, No Iterations 2
time step continuity errors : sum local = 1.17251e-06, global = -2.18488e-07, cumulative = 5.41989e-06
smoothSolver:  Solving for omega, Initial residual = 1.82206e-06, Final residual = 5.05149e-08, No Iterations 2
smoothSolver:  Solving for k, Initial residual = 0.000205788, Final residual = 1.32295e-05, No Iterations 1
ExecutionTime = 26.34 s  ClockTime = 26 s

forces forcesFish write:
    Sum of forces
        Total    : (0.212361 0.00284083 -4.03425e-05)
        Pressure : (0.056065 0.00274052 -6.3502e-05)
        Viscous  : (0.156296 0.000100308 2.31595e-05)
    Sum of moments
        Total    : (-2.65566e-07 8.25286e-06 0.000760452)
        Pressure : (-2.80107e-07 8.55589e-06 0.000657848)
        Viscous  : (1.45405e-08 -3.03029e-07 0.000102605)
    writing force and moment files.

Time = 50

smoothSolver:  Solving for Ux, Initial residual = 2.78167e-05, Final residual = 2.71949e-06, No Iterations 1
smoothSolver:  Solving for Uy, Initial residual = 0.00107946, Final residual = 6.36529e-05, No Iterations 1
smoothSolver:  Solving for Uz, Initial residual = 0.00149881, Final residual = 8.35846e-05, No Iterations 1
GAMG:  Solving for p, Initial residual = 0.00575787, Final residual = 0.000196694, No Iterations 2
time step continuity errors : sum local = 1.1024e-06, global = -1.88889e-07, cumulative = 5.23101e-06
smoothSolver:  Solving for omega, Initial residual = 1.54943e-06, Final residual = 4.53284e-08, No Iterations 2
smoothSolver:  Solving for k, Initial residual = 0.000170288, Final residual = 1.17651e-05, No Iterations 1
ExecutionTime = 26.85 s  ClockTime = 26 s

forces forcesFish write:
    Sum of forces
        Total    : (0.212034 0.00285767 -7.4828e-05)
        Pressure : (0.0560012 0.00275839 -9.79054e-05)
        Viscous  : (0.156032 9.92785e-05 2.30774e-05)
    Sum of moments
        Total    : (-4.54173e-08 1.65642e-05 0.000763495)
        Pressure : (-5.7539e-08 1.68814e-05 0.000661421)
        Viscous  : (1.21217e-08 -3.17164e-07 0.000102074)
    writing force and moment files.

Time = 51

smoothSolver:  Solving for Ux, Initial residual = 2.60978e-05, Final residual = 2.58957e-06, No Iterations 1
smoothSolver:  Solving for Uy, Initial residual = 0.0010127, Final residual = 5.96394e-05, No Iterations 1
smoothSolver:  Solving for Uz, Initial residual = 0.00139274, Final residual = 7.73652e-05, No Iterations 1
GAMG:  Solving for p, Initial residual = 0.0053962, Final residual = 0.000184275, No Iterations 2
time step continuity errors : sum local = 1.03162e-06, global = -1.49537e-07, cumulative = 5.08147e-06
smoothSolver:  Solving for omega, Initial residual = 1.33166e-06, Final residual = 4.07278e-08, No Iterations 2
smoothSolver:  Solving for k, Initial residual = 0.000141225, Final residual = 1.04981e-05, No Iterations 1
ExecutionTime = 27.34 s  ClockTime = 27 s

forces forcesFish write:
    Sum of forces
        Total    : (0.211723 0.00287661 -0.000109045)
        Pressure : (0.0559419 0.00277838 -0.000132064)
        Viscous  : (0.155781 9.82325e-05 2.3019e-05)
    Sum of moments
        Total    : (1.2804e-07 2.43915e-05 0.00076656)
        Pressure : (1.18293e-07 2.47261e-05 0.000665029)
        Viscous  : (9.74657e-09 -3.34539e-07 0.000101531)
    writing force and moment files.

Time = 52

smoothSolver:  Solving for Ux, Initial residual = 2.42559e-05, Final residual = 5.22669e-07, No Iterations 2
smoothSolver:  Solving for Uy, Initial residual = 0.000950873, Final residual = 5.62749e-05, No Iterations 1
smoothSolver:  Solving for Uz, Initial residual = 0.00129608, Final residual = 7.14513e-05, No Iterations 1
GAMG:  Solving for p, Initial residual = 0.00508112, Final residual = 0.000175443, No Iterations 2
time step continuity errors : sum local = 9.80955e-07, global = -9.6953e-08, cumulative = 4.98452e-06
smoothSolver:  Solving for omega, Initial residual = 1.15996e-06, Final residual = 3.68015e-08, No Iterations 2
smoothSolver:  Solving for k, Initial residual = 0.000117571, Final residual = 9.3979e-06, No Iterations 1
ExecutionTime = 27.83 s  ClockTime = 27 s

forces forcesFish write:
    Sum of forces
        Total    : (0.211384 0.00288673 -0.000138792)
        Pressure : (0.0558588 0.0027896 -0.000161778)
        Viscous  : (0.155525 9.71377e-05 2.29864e-05)
    Sum of moments
        Total    : (2.31823e-07 3.09305e-05 0.000766393)
        Pressure : (2.24287e-07 3.12871e-05 0.000665476)
        Viscous  : (7.53537e-09 -3.56695e-07 0.000100918)
    writing force and moment files.

Time = 53

smoothSolver:  Solving for Ux, Initial residual = 2.25483e-05, Final residual = 4.91855e-07, No Iterations 2
smoothSolver:  Solving for Uy, Initial residual = 0.000890232, Final residual = 5.38032e-05, No Iterations 1
smoothSolver:  Solving for Uz, Initial residual = 0.00121356, Final residual = 6.70212e-05, No Iterations 1
GAMG:  Solving for p, Initial residual = 0.00477396, Final residual = 0.000169743, No Iterations 2
time step continuity errors : sum local = 9.47724e-07, global = -4.07129e-08, cumulative = 4.9438e-06
smoothSolver:  Solving for omega, Initial residual = 1.01934e-06, Final residual = 3.32958e-08, No Iterations 2
smoothSolver:  Solving for k, Initial residual = 9.8399e-05, Final residual = 8.44142e-06, No Iterations 1
ExecutionTime = 28.31 s  ClockTime = 28 s

forces forcesFish write:
    Sum of forces
        Total    : (0.211047 0.00288812 -0.000161134)
        Pressure : (0.0557653 0.00279214 -0.00018411)
        Viscous  : (0.155282 9.59791e-05 2.29759e-05)
    Sum of moments
        Total    : (2.63327e-07 3.56714e-05 0.000763646)
        Pressure : (2.57776e-07 3.60521e-05 0.000663357)
        Viscous  : (5.55133e-09 -3.8068e-07 0.000100288)
    writing force and moment files.

Time = 54

smoothSolver:  Solving for Ux, Initial residual = 2.13373e-05, Final residual = 4.64189e-07, No Iterations 2
smoothSolver:  Solving for Uy, Initial residual = 0.000830062, Final residual = 5.1791e-05, No Iterations 1
smoothSolver:  Solving for Uz, Initial residual = 0.00114255, Final residual = 6.40288e-05, No Iterations 1
GAMG:  Solving for p, Initial residual = 0.00448099, Final residual = 0.000165278, No Iterations 2
time step continuity errors : sum local = 9.21564e-07, global = 6.48291e-09, cumulative = 4.95029e-06
smoothSolver:  Solving for omega, Initial residual = 9.03909e-07, Final residual = 3.01583e-08, No Iterations 2
smoothSolver:  Solving for k, Initial residual = 8.28902e-05, Final residual = 7.60625e-06, No Iterations 1
ExecutionTime = 28.79 s  ClockTime = 28 s

forces forcesFish write:
    Sum of forces
        Total    : (0.210725 0.00288304 -0.000175276)
        Pressure : (0.0556732 0.00278829 -0.00019826)
        Viscous  : (0.155052 9.47454e-05 2.29842e-05)
    Sum of moments
        Total    : (2.35432e-07 3.85854e-05 0.00075934)
        Pressure : (2.31626e-07 3.89916e-05 0.000659698)
        Viscous  : (3.80623e-09 -4.06223e-07 9.96427e-05)
    writing force and moment files.

Time = 55

smoothSolver:  Solving for Ux, Initial residual = 2.05579e-05, Final residual = 4.39194e-07, No Iterations 2
smoothSolver:  Solving for Uy, Initial residual = 0.000772464, Final residual = 5.01044e-05, No Iterations 1
smoothSolver:  Solving for Uz, Initial residual = 0.00108312, Final residual = 6.23017e-05, No Iterations 1
GAMG:  Solving for p, Initial residual = 0.00419815, Final residual = 0.000156816, No Iterations 2
time step continuity errors : sum local = 8.73479e-07, global = 5.93773e-08, cumulative = 5.00966e-06
smoothSolver:  Solving for omega, Initial residual = 8.08106e-07, Final residual = 2.73721e-08, No Iterations 2
smoothSolver:  Solving for k, Initial residual = 7.03495e-05, Final residual = 6.87308e-06, No Iterations 1
ExecutionTime = 29.29 s  ClockTime = 29 s

forces forcesFish write:
    Sum of forces
        Total    : (0.210424 0.00287453 -0.000182068)
        Pressure : (0.0555905 0.00278109 -0.000205071)
        Viscous  : (0.154834 9.34312e-05 2.3003e-05)
    Sum of moments
        Total    : (1.68431e-07 3.99912e-05 0.000754529)
        Pressure : (1.66123e-07 4.04229e-05 0.000655548)
        Viscous  : (2.30724e-09 -4.31713e-07 9.89804e-05)
    writing force and moment files.

Time = 56

smoothSolver:  Solving for Ux, Initial residual = 2.00718e-05, Final residual = 1.99594e-06, No Iterations 1
smoothSolver:  Solving for Uy, Initial residual = 0.000723185, Final residual = 4.87762e-05, No Iterations 1
smoothSolver:  Solving for Uz, Initial residual = 0.00102723, Final residual = 6.13084e-05, No Iterations 1
GAMG:  Solving for p, Initial residual = 0.00392856, Final residual = 0.000143395, No Iterations 2
time step continuity errors : sum local = 7.98159e-07, global = 1.02151e-07, cumulative = 5.11181e-06
smoothSolver:  Solving for omega, Initial residual = 7.24713e-07, Final residual = 2.47805e-08, No Iterations 2
smoothSolver:  Solving for k, Initial residual = 6.02063e-05, Final residual = 1.24259e-06, No Iterations 2
ExecutionTime = 29.8 s  ClockTime = 29 s

forces forcesFish write:
    Sum of forces
        Total    : (0.210164 0.00286869 -0.000182303)
        Pressure : (0.0555465 0.00277667 -0.000205329)
        Viscous  : (0.154617 9.20226e-05 2.30263e-05)
    Sum of moments
        Total    : (8.29279e-08 4.00945e-05 0.00075148)
        Pressure : (8.19393e-08 4.05498e-05 0.000653147)
        Viscous  : (9.88624e-10 -4.55343e-07 9.83326e-05)
    writing force and moment files.

Time = 57

smoothSolver:  Solving for Ux, Initial residual = 1.96727e-05, Final residual = 1.93359e-06, No Iterations 1
smoothSolver:  Solving for Uy, Initial residual = 0.00068285, Final residual = 4.71417e-05, No Iterations 1
smoothSolver:  Solving for Uz, Initial residual = 0.000969391, Final residual = 5.95458e-05, No Iterations 1
GAMG:  Solving for p, Initial residual = 0.00368422, Final residual = 0.000125244, No Iterations 2
time step continuity errors : sum local = 6.97167e-07, global = 1.3866e-07, cumulative = 5.25047e-06
smoothSolver:  Solving for omega, Initial residual = 6.71336e-07, Final residual = 2.29342e-08, No Iterations 2
smoothSolver:  Solving for k, Initial residual = 5.16361e-05, Final residual = 1.13131e-06, No Iterations 2
ExecutionTime = 30.28 s  ClockTime = 30 s

forces forcesFish write:
    Sum of forces
        Total    : (0.209946 0.00286572 -0.000178883)
        Pressure : (0.0555314 0.00277515 -0.000201924)
        Viscous  : (0.154414 9.05681e-05 2.30409e-05)
    Sum of moments
        Total    : (-4.20741e-09 3.96369e-05 0.000749955)
        Pressure : (-4.13344e-09 4.01123e-05 0.000652277)
        Viscous  : (-7.39705e-11 -4.75386e-07 9.76778e-05)
    writing force and moment files.

Time = 58

smoothSolver:  Solving for Ux, Initial residual = 1.90497e-05, Final residual = 1.86258e-06, No Iterations 1
smoothSolver:  Solving for Uy, Initial residual = 0.000644637, Final residual = 4.50666e-05, No Iterations 1
smoothSolver:  Solving for Uz, Initial residual = 0.000910772, Final residual = 5.69872e-05, No Iterations 1
GAMG:  Solving for p, Initial residual = 0.00345934, Final residual = 0.000109995, No Iterations 2
time step continuity errors : sum local = 6.12731e-07, global = 1.52245e-07, cumulative = 5.40272e-06
smoothSolver:  Solving for omega, Initial residual = 6.19779e-07, Final residual = 2.11795e-08, No Iterations 2
smoothSolver:  Solving for k, Initial residual = 4.46401e-05, Final residual = 1.01714e-06, No Iterations 2
ExecutionTime = 30.77 s  ClockTime = 30 s

forces forcesFish write:
    Sum of forces
        Total    : (0.209759 0.00286558 -0.000174915)
        Pressure : (0.0555346 0.0027765 -0.000197957)
        Viscous  : (0.154224 8.90781e-05 2.30417e-05)
    Sum of moments
        Total    : (-7.78062e-08 3.93645e-05 0.000749664)
        Pressure : (-7.68872e-08 3.98558e-05 0.000652646)
        Viscous  : (-9.1894e-10 -4.9134e-07 9.70182e-05)
    writing force and moment files.

Time = 59

smoothSolver:  Solving for Ux, Initial residual = 1.78955e-05, Final residual = 1.77397e-06, No Iterations 1
smoothSolver:  Solving for Uy, Initial residual = 0.000607823, Final residual = 4.27765e-05, No Iterations 1
smoothSolver:  Solving for Uz, Initial residual = 0.000855636, Final residual = 5.39879e-05, No Iterations 1
GAMG:  Solving for p, Initial residual = 0.00324557, Final residual = 0.000106898, No Iterations 2
time step continuity errors : sum local = 5.96289e-07, global = 1.33451e-07, cumulative = 5.53617e-06
smoothSolver:  Solving for omega, Initial residual = 5.71925e-07, Final residual = 1.95581e-08, No Iterations 2
smoothSolver:  Solving for k, Initial residual = 3.88793e-05, Final residual = 9.10962e-07, No Iterations 2
ExecutionTime = 31.27 s  ClockTime = 31 s

forces forcesFish write:
    Sum of forces
        Total    : (0.209592 0.0028682 -0.000173047)
        Pressure : (0.0555462 0.00278063 -0.000196074)
        Viscous  : (0.154046 8.75698e-05 2.30275e-05)
    Sum of moments
        Total    : (-1.28045e-07 3.98531e-05 0.000750334)
        Pressure : (-1.26466e-07 4.03566e-05 0.000653977)
        Viscous  : (-1.57891e-09 -5.03483e-07 9.63578e-05)
    writing force and moment files.

Time = 60

smoothSolver:  Solving for Ux, Initial residual = 1.599e-05, Final residual = 3.52882e-07, No Iterations 2
smoothSolver:  Solving for Uy, Initial residual = 0.00057476, Final residual = 4.05839e-05, No Iterations 1
smoothSolver:  Solving for Uz, Initial residual = 0.000804025, Final residual = 5.08106e-05, No Iterations 1
GAMG:  Solving for p, Initial residual = 0.00305816, Final residual = 0.00010326, No Iterations 2
time step continuity errors : sum local = 5.77136e-07, global = 1.03941e-07, cumulative = 5.64011e-06
smoothSolver:  Solving for omega, Initial residual = 5.31569e-07, Final residual = 1.82144e-08, No Iterations 2
smoothSolver:  Solving for k, Initial residual = 3.40759e-05, Final residual = 8.14136e-07, No Iterations 2
ExecutionTime = 31.75 s  ClockTime = 31 s

forces forcesFish write:
    Sum of forces
        Total    : (0.209401 0.00287123 -0.000176048)
        Pressure : (0.055532 0.00278517 -0.00019905)
        Viscous  : (0.153869 8.60537e-05 2.30021e-05)
    Sum of moments
        Total    : (-1.49726e-07 4.16703e-05 0.000750708)
        Pressure : (-1.47623e-07 4.21846e-05 0.000655045)
        Viscous  : (-2.10281e-09 -5.14291e-07 9.56636e-05)
    writing force and moment files.

Time = 61

smoothSolver:  Solving for Ux, Initial residual = 1.37188e-05, Final residual = 3.316e-07, No Iterations 2
smoothSolver:  Solving for Uy, Initial residual = 0.000543236, Final residual = 3.88241e-05, No Iterations 1
smoothSolver:  Solving for Uz, Initial residual = 0.000757512, Final residual = 4.83039e-05, No Iterations 1
GAMG:  Solving for p, Initial residual = 0.0028742, Final residual = 9.45421e-05, No Iterations 2
time step continuity errors : sum local = 5.294e-07, global = 9.40541e-08, cumulative = 5.73416e-06
smoothSolver:  Solving for omega, Initial residual = 4.95199e-07, Final residual = 1.69742e-08, No Iterations 2
smoothSolver:  Solving for k, Initial residual = 3.00422e-05, Final residual = 7.26812e-07, No Iterations 2
ExecutionTime = 32.27 s  ClockTime = 32 s

forces forcesFish write:
    Sum of forces
        Total    : (0.2092 0.00287569 -0.000182753)
        Pressure : (0.0554964 0.00279115 -0.000205719)
        Viscous  : (0.153704 8.45389e-05 2.29666e-05)
    Sum of moments
        Total    : (-1.48665e-07 4.43749e-05 0.000751241)
        Pressure : (-1.46152e-07 4.48976e-05 0.000656266)
        Viscous  : (-2.51245e-09 -5.22717e-07 9.49747e-05)
    writing force and moment files.

Time = 62

smoothSolver:  Solving for Ux, Initial residual = 1.21347e-05, Final residual = 3.13094e-07, No Iterations 2
smoothSolver:  Solving for Uy, Initial residual = 0.000508293, Final residual = 3.71047e-05, No Iterations 1
smoothSolver:  Solving for Uz, Initial residual = 0.000712828, Final residual = 4.60421e-05, No Iterations 1
GAMG:  Solving for p, Initial residual = 0.00270142, Final residual = 8.99043e-05, No Iterations 2
time step continuity errors : sum local = 5.0408e-07, global = 8.40743e-08, cumulative = 5.81824e-06
smoothSolver:  Solving for omega, Initial residual = 4.61969e-07, Final residual = 1.58298e-08, No Iterations 2
smoothSolver:  Solving for k, Initial residual = 2.66209e-05, Final residual = 6.48231e-07, No Iterations 2
ExecutionTime = 32.79 s  ClockTime = 32 s

forces forcesFish write:
    Sum of forces
        Total    : (0.208998 0.00288208 -0.000191584)
        Pressure : (0.0554482 0.00279904 -0.00021451)
        Viscous  : (0.153549 8.30456e-05 2.29262e-05)
    Sum of moments
        Total    : (-1.32559e-07 4.7482e-05 0.000752231)
        Pressure : (-1.29723e-07 4.80118e-05 0.000657934)
        Viscous  : (-2.83586e-09 -5.29871e-07 9.4297e-05)
    writing force and moment files.

Time = 63

smoothSolver:  Solving for Ux, Initial residual = 1.11643e-05, Final residual = 2.96513e-07, No Iterations 2
smoothSolver:  Solving for Uy, Initial residual = 0.000471484, Final residual = 3.54145e-05, No Iterations 1
smoothSolver:  Solving for Uz, Initial residual = 0.000668655, Final residual = 4.38759e-05, No Iterations 1
GAMG:  Solving for p, Initial residual = 0.00253831, Final residual = 8.92996e-05, No Iterations 2
time step continuity errors : sum local = 5.01023e-07, global = 5.66913e-08, cumulative = 5.87493e-06
smoothSolver:  Solving for omega, Initial residual = 4.31567e-07, Final residual = 1.4766e-08, No Iterations 2
smoothSolver:  Solving for k, Initial residual = 2.36812e-05, Final residual = 5.77594e-07, No Iterations 2
ExecutionTime = 33.28 s  ClockTime = 33 s

forces forcesFish write:
    Sum of forces
        Total    : (0.208801 0.00289086 -0.000201735)
        Pressure : (0.0553956 0.00280927 -0.000224619)
        Viscous  : (0.153406 8.15882e-05 2.28847e-05)
    Sum of moments
        Total    : (-1.05901e-07 5.07558e-05 0.000753921)
        Pressure : (-1.02801e-07 5.12924e-05 0.000660287)
        Viscous  : (-3.09949e-09 -5.36583e-07 9.36345e-05)
    writing force and moment files.

Time = 64

smoothSolver:  Solving for Ux, Initial residual = 1.06276e-05, Final residual = 2.81243e-07, No Iterations 2
smoothSolver:  Solving for Uy, Initial residual = 0.00043955, Final residual = 3.39377e-05, No Iterations 1
smoothSolver:  Solving for Uz, Initial residual = 0.000627928, Final residual = 4.18571e-05, No Iterations 1
GAMG:  Solving for p, Initial residual = 0.0023854, Final residual = 8.46318e-05, No Iterations 2
[...]
        Pressure : (1.15186e-07 7.12932e-05 0.00081087)
        Viscous  : (5.81087e-09 -5.06201e-07 8.36035e-05)
    writing force and moment files.

Time = 119

smoothSolver:  Solving for Ux, Initial residual = 1.00524e-06, Final residual = 5.16882e-08, No Iterations 1
smoothSolver:  Solving for Uy, Initial residual = 2.52299e-05, Final residual = 1.58848e-06, No Iterations 1
smoothSolver:  Solving for Uz, Initial residual = 3.06977e-05, Final residual = 1.92298e-06, No Iterations 1
GAMG:  Solving for p, Initial residual = 0.000112761, Final residual = 5.14448e-06, No Iterations 2
time step continuity errors : sum local = 2.90546e-08, global = -8.33321e-09, cumulative = 5.47731e-06
smoothSolver:  Solving for omega, Initial residual = 8.34278e-09, Final residual = 8.34278e-09, No Iterations 0
smoothSolver:  Solving for k, Initial residual = 6.16867e-08, Final residual = 5.32277e-09, No Iterations 1
ExecutionTime = 61.28 s  ClockTime = 61 s

forces forcesFish write:
    Sum of forces
        Total    : (0.206712 0.00334074 -0.00026649)
        Pressure : (0.054895 0.00327895 -0.000288445)
        Viscous  : (0.151817 6.17841e-05 2.19551e-05)
    Sum of moments
        Total    : (1.20593e-07 7.06863e-05 0.000894721)
        Pressure : (1.14644e-07 7.11912e-05 0.00081112)
        Viscous  : (5.94848e-09 -5.04877e-07 8.36009e-05)
    writing force and moment files.

Time = 120

smoothSolver:  Solving for Ux, Initial residual = 1.00218e-06, Final residual = 4.97941e-08, No Iterations 1
smoothSolver:  Solving for Uy, Initial residual = 2.35932e-05, Final residual = 1.46129e-06, No Iterations 1
smoothSolver:  Solving for Uz, Initial residual = 2.90176e-05, Final residual = 1.78602e-06, No Iterations 1
GAMG:  Solving for p, Initial residual = 0.000106177, Final residual = 4.64203e-06, No Iterations 2
time step continuity errors : sum local = 2.62167e-08, global = -6.44419e-09, cumulative = 5.47087e-06
smoothSolver:  Solving for omega, Initial residual = 9.35711e-09, Final residual = 9.35711e-09, No Iterations 0
smoothSolver:  Solving for k, Initial residual = 5.84979e-08, Final residual = 4.96249e-09, No Iterations 1
ExecutionTime = 61.76 s  ClockTime = 61 s

forces forcesFish write:
    Sum of forces
        Total    : (0.206711 0.00334135 -0.000266205)
        Pressure : (0.0548939 0.00327956 -0.000288156)
        Viscous  : (0.151817 6.17852e-05 2.19517e-05)
    Sum of moments
        Total    : (1.2021e-07 7.05982e-05 0.000894958)
        Pressure : (1.14132e-07 7.11019e-05 0.00081136)
        Viscous  : (6.07802e-09 -5.03676e-07 8.35983e-05)
    writing force and moment files.

Time = 121

smoothSolver:  Solving for Ux, Initial residual = 9.81915e-07, Final residual = 4.75165e-08, No Iterations 1
smoothSolver:  Solving for Uy, Initial residual = 2.20016e-05, Final residual = 1.33967e-06, No Iterations 1
smoothSolver:  Solving for Uz, Initial residual = 2.72879e-05, Final residual = 1.65032e-06, No Iterations 1
GAMG:  Solving for p, Initial residual = 9.98175e-05, Final residual = 4.1674e-06, No Iterations 2
time step continuity errors : sum local = 2.35363e-08, global = -4.03482e-09, cumulative = 5.46683e-06
smoothSolver:  Solving for omega, Initial residual = 1.02981e-08, Final residual = 1.59568e-09, No Iterations 1
smoothSolver:  Solving for k, Initial residual = 5.47366e-08, Final residual = 4.52994e-09, No Iterations 1
ExecutionTime = 62.25 s  ClockTime = 62 s

forces forcesFish write:
    Sum of forces
        Total    : (0.206709 0.00334195 -0.000265953)
        Pressure : (0.0548929 0.00328017 -0.000287902)
        Viscous  : (0.151816 6.1786e-05 2.19487e-05)
    Sum of moments
        Total    : (1.19864e-07 7.05201e-05 0.00089519)
        Pressure : (1.13664e-07 7.10227e-05 0.000811594)
        Viscous  : (6.19932e-09 -5.02594e-07 8.35959e-05)
    writing force and moment files.

Time = 122

smoothSolver:  Solving for Ux, Initial residual = 9.46377e-07, Final residual = 4.48856e-08, No Iterations 1
smoothSolver:  Solving for Uy, Initial residual = 2.05037e-05, Final residual = 1.22702e-06, No Iterations 1
smoothSolver:  Solving for Uz, Initial residual = 2.5559e-05, Final residual = 1.52083e-06, No Iterations 1
GAMG:  Solving for p, Initial residual = 9.37756e-05, Final residual = 3.77183e-06, No Iterations 2
time step continuity errors : sum local = 2.13026e-08, global = -1.2478e-09, cumulative = 5.46559e-06
smoothSolver:  Solving for omega, Initial residual = 8.15275e-09, Final residual = 8.15275e-09, No Iterations 0
smoothSolver:  Solving for k, Initial residual = 5.14844e-08, Final residual = 4.21911e-09, No Iterations 1
ExecutionTime = 62.7 s  ClockTime = 62 s

forces forcesFish write:
    Sum of forces
        Total    : (0.206708 0.00334255 -0.000265726)
        Pressure : (0.0548921 0.00328077 -0.000287672)
        Viscous  : (0.151816 6.17867e-05 2.1946e-05)
    Sum of moments
        Total    : (1.19557e-07 7.04497e-05 0.00089542)
        Pressure : (1.13245e-07 7.09513e-05 0.000811826)
        Viscous  : (6.31232e-09 -5.01632e-07 8.35936e-05)
    writing force and moment files.

Time = 123

smoothSolver:  Solving for Ux, Initial residual = 9.01069e-07, Final residual = 4.20607e-08, No Iterations 1
smoothSolver:  Solving for Uy, Initial residual = 1.91156e-05, Final residual = 1.12621e-06, No Iterations 1
smoothSolver:  Solving for Uz, Initial residual = 2.38755e-05, Final residual = 1.40172e-06, No Iterations 1
GAMG:  Solving for p, Initial residual = 8.80767e-05, Final residual = 3.44718e-06, No Iterations 2
time step continuity errors : sum local = 1.94695e-08, global = 1.70914e-09, cumulative = 5.46729e-06
smoothSolver:  Solving for omega, Initial residual = 8.93196e-09, Final residual = 8.93196e-09, No Iterations 0
smoothSolver:  Solving for k, Initial residual = 4.85988e-08, Final residual = 3.93362e-09, No Iterations 1
ExecutionTime = 63.17 s  ClockTime = 63 s

forces forcesFish write:
    Sum of forces
        Total    : (0.206707 0.00334316 -0.00026552)
        Pressure : (0.0548914 0.00328137 -0.000287464)
        Viscous  : (0.151815 6.17875e-05 2.19436e-05)
    Sum of moments
        Total    : (1.19289e-07 7.03855e-05 0.000895649)
        Pressure : (1.12872e-07 7.08863e-05 0.000812057)
        Viscous  : (6.41716e-09 -5.00777e-07 8.35916e-05)
    writing force and moment files.

Time = 124

smoothSolver:  Solving for Ux, Initial residual = 8.51166e-07, Final residual = 3.91976e-08, No Iterations 1
smoothSolver:  Solving for Uy, Initial residual = 1.78369e-05, Final residual = 1.03584e-06, No Iterations 1
smoothSolver:  Solving for Uz, Initial residual = 2.22704e-05, Final residual = 1.29363e-06, No Iterations 1
GAMG:  Solving for p, Initial residual = 8.2768e-05, Final residual = 3.18502e-06, No Iterations 2
time step continuity errors : sum local = 1.79894e-08, global = 4.26912e-09, cumulative = 5.47156e-06
smoothSolver:  Solving for omega, Initial residual = 9.6501e-09, Final residual = 9.6501e-09, No Iterations 0
smoothSolver:  Solving for k, Initial residual = 4.58613e-08, Final residual = 3.66586e-09, No Iterations 1
ExecutionTime = 63.63 s  ClockTime = 63 s

forces forcesFish write:
    Sum of forces
        Total    : (0.206706 0.00334376 -0.000265333)
        Pressure : (0.0548908 0.00328197 -0.000287274)
        Viscous  : (0.151815 6.17885e-05 2.19416e-05)
    Sum of moments
        Total    : (1.19057e-07 7.03269e-05 0.000895878)
        Pressure : (1.12543e-07 7.0827e-05 0.000812288)
        Viscous  : (6.51396e-09 -5.00023e-07 8.35899e-05)
    writing force and moment files.

Time = 125

smoothSolver:  Solving for Ux, Initial residual = 7.96741e-07, Final residual = 3.63067e-08, No Iterations 1
smoothSolver:  Solving for Uy, Initial residual = 1.66451e-05, Final residual = 9.54367e-07, No Iterations 1
smoothSolver:  Solving for Uz, Initial residual = 2.07558e-05, Final residual = 1.19565e-06, No Iterations 1
GAMG:  Solving for p, Initial residual = 7.78693e-05, Final residual = 2.9672e-06, No Iterations 2
time step continuity errors : sum local = 1.67596e-08, global = 6.06927e-09, cumulative = 5.47763e-06
smoothSolver:  Solving for omega, Initial residual = 1.03099e-08, Final residual = 1.57417e-09, No Iterations 1
smoothSolver:  Solving for k, Initial residual = 4.26544e-08, Final residual = 3.32781e-09, No Iterations 1
ExecutionTime = 64.09 s  ClockTime = 64 s

forces forcesFish write:
    Sum of forces
        Total    : (0.206705 0.00334437 -0.000265161)
        Pressure : (0.0548902 0.00328258 -0.000287101)
        Viscous  : (0.151815 6.179e-05 2.19398e-05)
    Sum of moments
        Total    : (1.18854e-07 7.02736e-05 0.000896106)
        Pressure : (1.12252e-07 7.07729e-05 0.000812518)
        Viscous  : (6.60287e-09 -4.99362e-07 8.35885e-05)
    writing force and moment files.

Time = 126

smoothSolver:  Solving for Ux, Initial residual = 7.35889e-07, Final residual = 3.33247e-08, No Iterations 1
smoothSolver:  Solving for Uy, Initial residual = 1.5531e-05, Final residual = 8.80379e-07, No Iterations 1
smoothSolver:  Solving for Uz, Initial residual = 1.93321e-05, Final residual = 1.10653e-06, No Iterations 1
GAMG:  Solving for p, Initial residual = 7.31891e-05, Final residual = 2.82254e-06, No Iterations 2
time step continuity errors : sum local = 1.59431e-08, global = 6.75435e-09, cumulative = 5.48439e-06
smoothSolver:  Solving for omega, Initial residual = 7.86267e-09, Final residual = 7.86267e-09, No Iterations 0
smoothSolver:  Solving for k, Initial residual = 3.9991e-08, Final residual = 3.10469e-09, No Iterations 1
ExecutionTime = 64.58 s  ClockTime = 64 s

forces forcesFish write:
    Sum of forces
        Total    : (0.206704 0.00334499 -0.000265006)
        Pressure : (0.0548898 0.0032832 -0.000286944)
        Viscous  : (0.151815 6.17918e-05 2.19383e-05)
    Sum of moments
        Total    : (1.18677e-07 7.02251e-05 0.000896335)
        Pressure : (1.11993e-07 7.07239e-05 0.000812748)
        Viscous  : (6.68407e-09 -4.98792e-07 8.35874e-05)
    writing force and moment files.

Time = 127

smoothSolver:  Solving for Ux, Initial residual = 6.64662e-07, Final residual = 3.0101e-08, No Iterations 1
smoothSolver:  Solving for Uy, Initial residual = 1.44888e-05, Final residual = 8.1339e-07, No Iterations 1
smoothSolver:  Solving for Uz, Initial residual = 1.79979e-05, Final residual = 1.02639e-06, No Iterations 1
GAMG:  Solving for p, Initial residual = 6.87594e-05, Final residual = 2.87506e-06, No Iterations 2
time step continuity errors : sum local = 1.62404e-08, global = 6.26068e-09, cumulative = 5.49065e-06
smoothSolver:  Solving for omega, Initial residual = 8.39674e-09, Final residual = 8.39674e-09, No Iterations 0
smoothSolver:  Solving for k, Initial residual = 3.7637e-08, Final residual = 2.89906e-09, No Iterations 1
ExecutionTime = 65.08 s  ClockTime = 65 s

forces forcesFish write:
    Sum of forces
        Total    : (0.206704 0.0033456 -0.000264868)
        Pressure : (0.0548894 0.00328381 -0.000286805)
        Viscous  : (0.151814 6.17943e-05 2.1937e-05)
    Sum of moments
        Total    : (1.18522e-07 7.01819e-05 0.000896563)
        Pressure : (1.11764e-07 7.06802e-05 0.000812977)
        Viscous  : (6.75796e-09 -4.98298e-07 8.35867e-05)
    writing force and moment files.

Time = 128

smoothSolver:  Solving for Ux, Initial residual = 5.80122e-07, Final residual = 2.65304e-08, No Iterations 1
smoothSolver:  Solving for Uy, Initial residual = 1.35006e-05, Final residual = 7.51438e-07, No Iterations 1
smoothSolver:  Solving for Uz, Initial residual = 1.67292e-05, Final residual = 9.52242e-07, No Iterations 1
GAMG:  Solving for p, Initial residual = 6.45527e-05, Final residual = 2.81143e-06, No Iterations 2
time step continuity errors : sum local = 1.58818e-08, global = 5.08778e-09, cumulative = 5.49574e-06
smoothSolver:  Solving for omega, Initial residual = 8.88463e-09, Final residual = 8.88463e-09, No Iterations 0
smoothSolver:  Solving for k, Initial residual = 3.53268e-08, Final residual = 2.70164e-09, No Iterations 1
ExecutionTime = 65.57 s  ClockTime = 65 s

forces forcesFish write:
    Sum of forces
        Total    : (0.206703 0.0033462 -0.000264749)
        Pressure : (0.0548892 0.0032844 -0.000286685)
        Viscous  : (0.151814 6.17973e-05 2.19359e-05)
    Sum of moments
        Total    : (1.1838e-07 7.01446e-05 0.000896787)
        Pressure : (1.11555e-07 7.06425e-05 0.000813201)
        Viscous  : (6.82488e-09 -4.97872e-07 8.35863e-05)
    writing force and moment files.

Time = 129

smoothSolver:  Solving for Ux, Initial residual = 4.85254e-07, Final residual = 2.26838e-08, No Iterations 1
smoothSolver:  Solving for Uy, Initial residual = 1.25278e-05, Final residual = 6.91992e-07, No Iterations 1
smoothSolver:  Solving for Uz, Initial residual = 1.54815e-05, Final residual = 8.79812e-07, No Iterations 1
GAMG:  Solving for p, Initial residual = 6.05046e-05, Final residual = 2.63483e-06, No Iterations 2
time step continuity errors : sum local = 1.4885e-08, global = 4.05146e-09, cumulative = 5.49979e-06
smoothSolver:  Solving for omega, Initial residual = 9.33057e-09, Final residual = 9.33057e-09, No Iterations 0
smoothSolver:  Solving for k, Initial residual = 3.30142e-08, Final residual = 2.51371e-09, No Iterations 1
ExecutionTime = 66.12 s  ClockTime = 66 s

forces forcesFish write:
    Sum of forces
        Total    : (0.206703 0.00334678 -0.000264652)
        Pressure : (0.054889 0.00328498 -0.000286587)
        Viscous  : (0.151814 6.18009e-05 2.19349e-05)
    Sum of moments
        Total    : (1.18245e-07 7.01133e-05 0.000897003)
        Pressure : (1.1136e-07 7.06108e-05 0.000813416)
        Viscous  : (6.88516e-09 -4.97507e-07 8.35862e-05)
    writing force and moment files.

Time = 130

smoothSolver:  Solving for Ux, Initial residual = 3.92104e-07, Final residual = 1.89316e-08, No Iterations 1
smoothSolver:  Solving for Uy, Initial residual = 1.15396e-05, Final residual = 6.3194e-07, No Iterations 1
smoothSolver:  Solving for Uz, Initial residual = 1.42241e-05, Final residual = 8.05827e-07, No Iterations 1
GAMG:  Solving for p, Initial residual = 5.65692e-05, Final residual = 2.4161e-06, No Iterations 2
time step continuity errors : sum local = 1.36501e-08, global = 3.33694e-09, cumulative = 5.50312e-06
smoothSolver:  Solving for omega, Initial residual = 9.73877e-09, Final residual = 9.73877e-09, No Iterations 0
smoothSolver:  Solving for k, Initial residual = 3.0741e-08, Final residual = 2.33526e-09, No Iterations 1
ExecutionTime = 66.59 s  ClockTime = 66 s

forces forcesFish write:
    Sum of forces
        Total    : (0.206702 0.00334732 -0.000264573)
        Pressure : (0.0548889 0.00328551 -0.000286507)
        Viscous  : (0.151814 6.18049e-05 2.19341e-05)
    Sum of moments
        Total    : (1.1811e-07 7.0087e-05 0.000897206)
        Pressure : (1.11171e-07 7.05842e-05 0.00081362)
        Viscous  : (6.93918e-09 -4.97197e-07 8.35865e-05)
    writing force and moment files.

Time = 131

smoothSolver:  Solving for Ux, Initial residual = 3.14277e-07, Final residual = 1.57214e-08, No Iterations 1
smoothSolver:  Solving for Uy, Initial residual = 1.05378e-05, Final residual = 5.71051e-07, No Iterations 1
smoothSolver:  Solving for Uz, Initial residual = 1.29772e-05, Final residual = 7.29978e-07, No Iterations 1
GAMG:  Solving for p, Initial residual = 5.27933e-05, Final residual = 2.23008e-06, No Iterations 2
time step continuity errors : sum local = 1.25998e-08, global = 2.50525e-09, cumulative = 5.50563e-06
smoothSolver:  Solving for omega, Initial residual = 1.01123e-08, Final residual = 1.52152e-09, No Iterations 1
smoothSolver:  Solving for k, Initial residual = 2.80484e-08, Final residual = 2.09096e-09, No Iterations 1
ExecutionTime = 67.09 s  ClockTime = 67 s

forces forcesFish write:
    Sum of forces
        Total    : (0.206702 0.00334782 -0.000264507)
        Pressure : (0.0548888 0.00328601 -0.00028644)
        Viscous  : (0.151813 6.18095e-05 2.19335e-05)
    Sum of moments
        Total    : (1.17975e-07 7.00645e-05 0.000897398)
        Pressure : (1.10988e-07 7.05615e-05 0.000813811)
        Viscous  : (6.98731e-09 -4.96935e-07 8.3587e-05)
    writing force and moment files.

Time = 132

smoothSolver:  Solving for Ux, Initial residual = 2.59158e-07, Final residual = 1.32961e-08, No Iterations 1
smoothSolver:  Solving for Uy, Initial residual = 9.56836e-06, Final residual = 5.11536e-07, No Iterations 1
smoothSolver:  Solving for Uz, Initial residual = 1.17846e-05, Final residual = 6.55292e-07, No Iterations 1
GAMG:  Solving for p, Initial residual = 4.91715e-05, Final residual = 2.07514e-06, No Iterations 2
time step continuity errors : sum local = 1.17248e-08, global = 1.28999e-09, cumulative = 5.50692e-06
smoothSolver:  Solving for omega, Initial residual = 7.43444e-09, Final residual = 7.43444e-09, No Iterations 0
smoothSolver:  Solving for k, Initial residual = 2.57728e-08, Final residual = 1.93544e-09, No Iterations 1
ExecutionTime = 67.61 s  ClockTime = 67 s

forces forcesFish write:
    Sum of forces
        Total    : (0.206702 0.0033483 -0.000264451)
        Pressure : (0.0548888 0.00328648 -0.000286384)
        Viscous  : (0.151813 6.18144e-05 2.19329e-05)
    Sum of moments
        Total    : (1.1784e-07 7.00446e-05 0.00089758)
        Pressure : (1.1081e-07 7.05413e-05 0.000813992)
        Viscous  : (7.02988e-09 -4.96721e-07 8.35878e-05)
    writing force and moment files.

Time = 133

smoothSolver:  Solving for Ux, Initial residual = 2.32252e-07, Final residual = 1.19363e-08, No Iterations 1
smoothSolver:  Solving for Uy, Initial residual = 8.70154e-06, Final residual = 4.57806e-07, No Iterations 1
smoothSolver:  Solving for Uz, Initial residual = 1.07046e-05, Final residual = 5.86509e-07, No Iterations 1
GAMG:  Solving for p, Initial residual = 4.57431e-05, Final residual = 1.91465e-06, No Iterations 2
time step continuity errors : sum local = 1.08183e-08, global = -2.07991e-10, cumulative = 5.50671e-06
smoothSolver:  Solving for omega, Initial residual = 7.73523e-09, Final residual = 7.73523e-09, No Iterations 0
smoothSolver:  Solving for k, Initial residual = 2.37363e-08, Final residual = 1.7876e-09, No Iterations 1
ExecutionTime = 68.09 s  ClockTime = 68 s

forces forcesFish write:
    Sum of forces
        Total    : (0.206702 0.00334875 -0.000264403)
        Pressure : (0.0548888 0.00328693 -0.000286336)
        Viscous  : (0.151813 6.18196e-05 2.19325e-05)
    Sum of moments
        Total    : (1.17709e-07 7.00269e-05 0.000897755)
        Pressure : (1.10641e-07 7.05234e-05 0.000814166)
        Viscous  : (7.06746e-09 -4.96541e-07 8.35888e-05)
    writing force and moment files.

Time = 134

smoothSolver:  Solving for Ux, Initial residual = 2.27185e-07, Final residual = 1.14395e-08, No Iterations 1
smoothSolver:  Solving for Uy, Initial residual = 7.96717e-06, Final residual = 4.11604e-07, No Iterations 1
smoothSolver:  Solving for Uz, Initial residual = 9.74651e-06, Final residual = 5.25678e-07, No Iterations 1
GAMG:  Solving for p, Initial residual = 4.25333e-05, Final residual = 1.71831e-06, No Iterations 2
time step continuity errors : sum local = 9.7091e-09, global = -1.7106e-09, cumulative = 5.505e-06
smoothSolver:  Solving for omega, Initial residual = 8.01149e-09, Final residual = 8.01149e-09, No Iterations 0
smoothSolver:  Solving for k, Initial residual = 2.18229e-08, Final residual = 1.64512e-09, No Iterations 1
ExecutionTime = 68.58 s  ClockTime = 68 s


SIMPLE solution converged in 134 iterations

forces forcesFish write:
    Sum of forces
        Total    : (0.206702 0.0033492 -0.000264364)
        Pressure : (0.0548889 0.00328737 -0.000286296)
        Viscous  : (0.151813 6.18251e-05 2.19322e-05)
    Sum of moments
        Total    : (1.17584e-07 7.00113e-05 0.000897924)
        Pressure : (1.10483e-07 7.05077e-05 0.000814334)
        Viscous  : (7.10046e-09 -4.9639e-07 8.359e-05)
    writing force and moment files.

End

