/*---------------------------------------------------------------------------*\
| =========                 |                                                 |
| \\      /  F ield         | OpenFOAM: The Open Source CFD Toolbox           |
|  \\    /   O peration     | Version:  2512                                  |
|   \\  /    A nd           | Website:  www.openfoam.com                      |
|    \\/     M anipulation  |                                                 |
\*---------------------------------------------------------------------------*/
Build  : _bd2b6720-20260127 OPENFOAM=2512 version=2512
Arch   : "LSB;label=32;scalar=64"
Exec   : simpleFoam
Date   : Mar 28 2026
Time   : 17:50:54
Host   : mathias-laptop
PID    : 11559
I/O    : uncollated
Case   : /home/mat/OpenFOAM/mat-run/speed_sweep_runs/U_1p0
nProcs : 1
trapFpe: Floating point exception trapping enabled (FOAM_SIGFPE).
memory pool : not available
fileModificationChecking : Monitoring run-time modified files using timeStampMaster (fileModificationSkew 5, maxFileModificationPolls 20)
allowSystemOperations : Allowing user-supplied system call operations

// * * * * * * * * * * * * * * * * * * * * * * * * * * * * * * * * * * * * * //
Create time

Create mesh for time = 0


SIMPLE: convergence criteria
    field p	 tolerance 0.0001
    field U	 tolerance 1e-05
    field "(k|omega)"	 tolerance 1e-05

Reading field p

Reading field U

Reading/calculating face flux field phi

Selecting incompressible transport model Newtonian
Selecting turbulence model type RAS
Selecting RAS turbulence model kOmegaSST
Selecting patchDistMethod meshWave
RAS
{
    RASModel        kOmegaSST;
    turbulence      on;
    printCoeffs     on;
    alphaK1         0.85;
    alphaK2         1;
    alphaOmega1     0.5;
    alphaOmega2     0.856;
    gamma1          0.555556;
    gamma2          0.44;
    beta1           0.075;
    beta2           0.0828;
    betaStar        0.09;
    a1              0.31;
    b1              1;
    c1              10;
    F3              false;
    decayControl    false;
    kInf            0;
    omegaInf        0;
}

No MRF models present

No finite volume options present

Starting time loop

forces forcesFish:
    rho: rhoInf
    Freestream density (rhoInf) set to 1000
    Not including porosity effects

Time = 1

smoothSolver:  Solving for Ux, Initial residual = 1, Final residual = 0.0342392, No Iterations 2
smoothSolver:  Solving for Uy, Initial residual = 1, Final residual = 0.0589459, No Iterations 2
smoothSolver:  Solving for Uz, Initial residual = 1, Final residual = 0.0514702, No Iterations 2
GAMG:  Solving for p, Initial residual = 1, Final residual = 0.0510621, No Iterations 5
time step continuity errors : sum local = 1.45429e-05, global = -1.72484e-06, cumulative = -1.72484e-06
smoothSolver:  Solving for omega, Initial residual = 0.00610963, Final residual = 0.000209198, No Iterations 1
bounding omega, min: -16.4926 max: 11487.6 average: 123.956
smoothSolver:  Solving for k, Initial residual = 1, Final residual = 0.03112, No Iterations 1
ExecutionTime = 1.97 s  ClockTime = 2 s

forces forcesFish write:
    Sum of forces
        Total    : (1.61436 0.232385 -0.000149391)
        Pressure : (1.40228 0.232147 -0.000149829)
        Viscous  : (0.212075 0.000237506 4.3807e-07)
    Sum of moments
        Total    : (-0.000242373 0.00055621 0.101911)
        Pressure : (-0.000242117 0.000558142 0.10168)
        Viscous  : (-2.55494e-07 -1.93218e-06 0.000230938)
    writing force and moment files.

Time = 2

smoothSolver:  Solving for Ux, Initial residual = 0.0146417, Final residual = 0.00061993, No Iterations 2
smoothSolver:  Solving for Uy, Initial residual = 0.0786088, Final residual = 0.00525249, No Iterations 2
smoothSolver:  Solving for Uz, Initial residual = 0.349652, Final residual = 0.0252581, No Iterations 2
GAMG:  Solving for p, Initial residual = 0.240164, Final residual = 0.0195208, No Iterations 3
time step continuity errors : sum local = 3.04601e-05, global = -1.81635e-06, cumulative = -3.54119e-06
smoothSolver:  Solving for omega, Initial residual = 0.00381533, Final residual = 0.000121446, No Iterations 1
smoothSolver:  Solving for k, Initial residual = 0.396995, Final residual = 0.0127203, No Iterations 1
ExecutionTime = 2.56 s  ClockTime = 2 s

forces forcesFish write:
    Sum of forces
        Total    : (2.0481 0.31579 0.00187433)
        Pressure : (1.83582 0.315665 0.00188034)
        Viscous  : (0.212274 0.000125437 -6.00564e-06)
    Sum of moments
        Total    : (-0.000276451 8.74087e-05 0.132575)
        Pressure : (-0.000276677 9.19809e-05 0.132412)
        Viscous  : (2.25422e-07 -4.57219e-06 0.00016251)
    writing force and moment files.

Time = 3

smoothSolver:  Solving for Ux, Initial residual = 0.00431368, Final residual = 0.000190009, No Iterations 2
smoothSolver:  Solving for Uy, Initial residual = 0.0365595, Final residual = 0.00241012, No Iterations 2
smoothSolver:  Solving for Uz, Initial residual = 0.216589, Final residual = 0.0154093, No Iterations 2
GAMG:  Solving for p, Initial residual = 0.406216, Final residual = 0.0163269, No Iterations 3
time step continuity errors : sum local = 2.13263e-05, global = -1.98087e-06, cumulative = -5.52207e-06
smoothSolver:  Solving for omega, Initial residual = 0.00271321, Final residual = 9.00805e-05, No Iterations 1
smoothSolver:  Solving for k, Initial residual = 0.226316, Final residual = 0.00743526, No Iterations 1
ExecutionTime = 3.14 s  ClockTime = 3 s

forces forcesFish write:
    Sum of forces
        Total    : (1.96943 0.299672 -0.00075462)
        Pressure : (1.75645 0.29969 -0.000744903)
        Viscous  : (0.212984 -1.80421e-05 -9.71699e-06)
    Sum of moments
        Total    : (-0.000240331 0.000505005 0.123197)
        Pressure : (-0.000241041 0.000511673 0.123119)
        Viscous  : (7.09956e-07 -6.6679e-06 7.75128e-05)
    writing force and moment files.

Time = 4

smoothSolver:  Solving for Ux, Initial residual = 0.0023985, Final residual = 0.000104848, No Iterations 2
smoothSolver:  Solving for Uy, Initial residual = 0.0203094, Final residual = 0.00131856, No Iterations 2
smoothSolver:  Solving for Uz, Initial residual = 0.135338, Final residual = 0.00943479, No Iterations 2
GAMG:  Solving for p, Initial residual = 0.166478, Final residual = 0.00750924, No Iterations 3
time step continuity errors : sum local = 3.33233e-05, global = -1.96822e-06, cumulative = -7.49029e-06
smoothSolver:  Solving for omega, Initial residual = 0.0020358, Final residual = 7.01472e-05, No Iterations 1
smoothSolver:  Solving for k, Initial residual = 0.148164, Final residual = 0.00496783, No Iterations 1
ExecutionTime = 3.73 s  ClockTime = 4 s

forces forcesFish write:
    Sum of forces
        Total    : (1.60451 0.226915 -0.00497387)
        Pressure : (1.39083 0.227075 -0.00496693)
        Viscous  : (0.213671 -0.000159778 -6.93845e-06)
    Sum of moments
        Total    : (-0.000157689 0.00125847 0.0913808)
        Pressure : (-0.000158699 0.00126731 0.0913792)
        Viscous  : (1.01048e-06 -8.84269e-06 1.56617e-06)
    writing force and moment files.

Time = 5

smoothSolver:  Solving for Ux, Initial residual = 0.00150424, Final residual = 6.3473e-05, No Iterations 2
smoothSolver:  Solving for Uy, Initial residual = 0.0116555, Final residual = 0.000736648, No Iterations 2
smoothSolver:  Solving for Uz, Initial residual = 0.0829041, Final residual = 0.0055725, No Iterations 2
GAMG:  Solving for p, Initial residual = 0.0866861, Final residual = 0.0044442, No Iterations 3
time step continuity errors : sum local = 3.9872e-05, global = -1.43218e-06, cumulative = -8.92247e-06
smoothSolver:  Solving for omega, Initial residual = 0.00157901, Final residual = 5.60127e-05, No Iterations 1
smoothSolver:  Solving for k, Initial residual = 0.105262, Final residual = 0.00359065, No Iterations 1
ExecutionTime = 4.32 s  ClockTime = 4 s

forces forcesFish write:
    Sum of forces
        Total    : (1.13034 0.134978 -0.00825482)
        Pressure : (0.91592 0.135252 -0.00825278)
        Viscous  : (0.214423 -0.000274121 -2.04408e-06)
    Sum of moments
        Total    : (-5.37922e-05 0.00190969 0.0521339)
        Pressure : (-5.48789e-05 0.00191933 0.0521833)
        Viscous  : (1.08673e-06 -9.64424e-06 -4.93789e-05)
    writing force and moment files.

Time = 6

smoothSolver:  Solving for Ux, Initial residual = 0.00106581, Final residual = 3.99095e-05, No Iterations 2
smoothSolver:  Solving for Uy, Initial residual = 0.00670683, Final residual = 0.000353419, No Iterations 2
smoothSolver:  Solving for Uz, Initial residual = 0.0474959, Final residual = 0.00253267, No Iterations 2
GAMG:  Solving for p, Initial residual = 0.0496873, Final residual = 0.00272307, No Iterations 3
time step continuity errors : sum local = 3.73596e-05, global = -5.14984e-07, cumulative = -9.43745e-06
smoothSolver:  Solving for omega, Initial residual = 0.00125519, Final residual = 4.55232e-05, No Iterations 1
smoothSolver:  Solving for k, Initial residual = 0.0789434, Final residual = 0.00273501, No Iterations 1
ExecutionTime = 4.89 s  ClockTime = 5 s

forces forcesFish write:
    Sum of forces
        Total    : (0.681793 0.0521154 -0.00901243)
        Pressure : (0.466573 0.0524535 -0.00900997)
        Viscous  : (0.21522 -0.000338061 -2.4545e-06)
    Sum of moments
        Total    : (4.60904e-05 0.00206865 0.0168864)
        Pressure : (4.5092e-05 0.00207554 0.0169546)
        Viscous  : (9.98437e-07 -6.88614e-06 -6.81366e-05)
    writing force and moment files.

Time = 7

smoothSolver:  Solving for Ux, Initial residual = 0.000893173, Final residual = 2.74832e-05, No Iterations 2
smoothSolver:  Solving for Uy, Initial residual = 0.00528762, Final residual = 0.000176904, No Iterations 2
smoothSolver:  Solving for Uz, Initial residual = 0.0414197, Final residual = 0.00144588, No Iterations 2
GAMG:  Solving for p, Initial residual = 0.0322569, Final residual = 0.00165403, No Iterations 3
time step continuity errors : sum local = 2.92743e-05, global = 4.97539e-07, cumulative = -8.93991e-06
smoothSolver:  Solving for omega, Initial residual = 0.00101738, Final residual = 3.75555e-05, No Iterations 1
smoothSolver:  Solving for k, Initial residual = 0.0615809, Final residual = 0.0021642, No Iterations 1
ExecutionTime = 5.46 s  ClockTime = 5 s

forces forcesFish write:
    Sum of forces
        Total    : (0.340198 -0.00556386 -0.00744459)
        Pressure : (0.124205 -0.00520444 -0.0074568)
        Viscous  : (0.215993 -0.000359426 1.22077e-05)
    Sum of moments
        Total    : (0.000125296 0.00179022 -0.00776957)
        Pressure : (0.000124652 0.00179998 -0.00770575)
        Viscous  : (6.4487e-07 -9.7635e-06 -6.38222e-05)
    writing force and moment files.

Time = 8

smoothSolver:  Solving for Ux, Initial residual = 0.000835468, Final residual = 2.41189e-05, No Iterations 2
smoothSolver:  Solving for Uy, Initial residual = 0.00651272, Final residual = 0.000282187, No Iterations 2
smoothSolver:  Solving for Uz, Initial residual = 0.0659776, Final residual = 0.00343463, No Iterations 2
GAMG:  Solving for p, Initial residual = 0.0258202, Final residual = 0.00235744, No Iterations 2
time step continuity errors : sum local = 4.76196e-05, global = 1.15545e-06, cumulative = -7.78447e-06
smoothSolver:  Solving for omega, Initial residual = 0.00083817, Final residual = 3.14208e-05, No Iterations 1
smoothSolver:  Solving for k, Initial residual = 0.0495297, Final residual = 0.00176492, No Iterations 1
ExecutionTime = 6.04 s  ClockTime = 6 s

forces forcesFish write:
    Sum of forces
        Total    : (0.151793 -0.0315877 -0.00704991)
        Pressure : (-0.0648876 -0.0312322 -0.00706449)
        Viscous  : (0.216681 -0.000355519 1.45873e-05)
    Sum of moments
        Total    : (0.000149435 0.0016869 -0.0190709)
        Pressure : (0.00014906 0.00169499 -0.0190219)
        Viscous  : (3.74412e-07 -8.08305e-06 -4.903e-05)
    writing force and moment files.

Time = 9

smoothSolver:  Solving for Ux, Initial residual = 0.000810222, Final residual = 2.30663e-05, No Iterations 2
smoothSolver:  Solving for Uy, Initial residual = 0.00743239, Final residual = 0.000354941, No Iterations 2
smoothSolver:  Solving for Uz, Initial residual = 0.0817146, Final residual = 0.00460458, No Iterations 2
GAMG:  Solving for p, Initial residual = 0.0274388, Final residual = 0.00203587, No Iterations 2
time step continuity errors : sum local = 4.25172e-05, global = 2.29988e-06, cumulative = -5.48458e-06
smoothSolver:  Solving for omega, Initial residual = 0.00069983, Final residual = 2.66024e-05, No Iterations 1
smoothSolver:  Solving for k, Initial residual = 0.0408049, Final residual = 0.00147298, No Iterations 1
ExecutionTime = 6.59 s  ClockTime = 7 s

forces forcesFish write:
    Sum of forces
        Total    : (0.0797998 -0.0328737 -0.0046402)
        Pressure : (-0.137465 -0.0325575 -0.00465306)
        Viscous  : (0.217265 -0.000316104 1.28651e-05)
    Sum of moments
        Total    : (0.00015626 0.00118334 -0.0201528)
        Pressure : (0.000156061 0.00118887 -0.0201282)
        Viscous  : (1.98224e-07 -5.53549e-06 -2.45833e-05)
    writing force and moment files.

Time = 10

smoothSolver:  Solving for Ux, Initial residual = 0.000782226, Final residual = 2.14893e-05, No Iterations 2
smoothSolver:  Solving for Uy, Initial residual = 0.00746135, Final residual = 0.00035862, No Iterations 2
smoothSolver:  Solving for Uz, Initial residual = 0.0766096, Final residual = 0.00431374, No Iterations 2
GAMG:  Solving for p, Initial residual = 0.0311458, Final residual = 0.00240065, No Iterations 2
time step continuity errors : sum local = 4.8948e-05, global = 3.43763e-06, cumulative = -2.04695e-06
smoothSolver:  Solving for omega, Initial residual = 0.000590815, Final residual = 2.27435e-05, No Iterations 1
smoothSolver:  Solving for k, Initial residual = 0.0342662, Final residual = 0.00125175, No Iterations 1
ExecutionTime = 7.15 s  ClockTime = 7 s

forces forcesFish write:
    Sum of forces
        Total    : (0.0900401 -0.0176378 -0.00120813)
        Pressure : (-0.127627 -0.0173938 -0.00122427)
        Viscous  : (0.217667 -0.000243983 1.61401e-05)
    Sum of moments
        Total    : (0.000147592 0.00051416 -0.0143448)
        Pressure : (0.000147562 0.000520145 -0.0143507)
        Viscous  : (2.96175e-08 -5.98426e-06 5.94055e-06)
    writing force and moment files.

Time = 11

smoothSolver:  Solving for Ux, Initial residual = 0.000731288, Final residual = 1.88464e-05, No Iterations 2
smoothSolver:  Solving for Uy, Initial residual = 0.0067167, Final residual = 0.000303646, No Iterations 2
smoothSolver:  Solving for Uz, Initial residual = 0.0627718, Final residual = 0.00330699, No Iterations 2
GAMG:  Solving for p, Initial residual = 0.0340149, Final residual = 0.00268942, No Iterations 2
time step continuity errors : sum local = 5.13588e-05, global = 4.28943e-06, cumulative = 2.24249e-06
smoothSolver:  Solving for omega, Initial residual = 0.000503314, Final residual = 1.96243e-05, No Iterations 1
smoothSolver:  Solving for k, Initial residual = 0.0292154, Final residual = 0.00107879, No Iterations 1
ExecutionTime = 7.7 s  ClockTime = 8 s

forces forcesFish write:
    Sum of forces
        Total    : (0.149033 0.00594365 0.0021804)
        Pressure : (-0.0687533 0.00608897 0.00216186)
        Viscous  : (0.217787 -0.000145314 1.85365e-05)
    Sum of moments
        Total    : (0.000126335 -7.27189e-05 -0.00495441)
        Pressure : (0.000126359 -6.56973e-05 -0.00499371)
        Viscous  : (-2.43643e-08 -7.02163e-06 3.92954e-05)
    writing force and moment files.

Time = 12

smoothSolver:  Solving for Ux, Initial residual = 0.000660286, Final residual = 1.56987e-05, No Iterations 2
smoothSolver:  Solving for Uy, Initial residual = 0.00575403, Final residual = 0.000219234, No Iterations 2
smoothSolver:  Solving for Uz, Initial residual = 0.048473, Final residual = 0.00211476, No Iterations 2
GAMG:  Solving for p, Initial residual = 0.0352097, Final residual = 0.00285078, No Iterations 2
time step continuity errors : sum local = 4.9263e-05, global = 4.72751e-06, cumulative = 6.96999e-06
smoothSolver:  Solving for omega, Initial residual = 0.000431956, Final residual = 1.70453e-05, No Iterations 1
smoothSolver:  Solving for k, Initial residual = 0.0252103, Final residual = 0.000939807, No Iterations 1
ExecutionTime = 8.26 s  ClockTime = 8 s

forces forcesFish write:
    Sum of forces
        Total    : (0.22701 0.0297978 0.00454177)
        Pressure : (0.00938918 0.0298458 0.00452145)
        Viscous  : (0.217621 -4.80019e-05 2.0321e-05)
    Sum of moments
        Total    : (9.67879e-05 -0.000379174 0.0048694)
        Pressure : (9.67969e-05 -0.000370633 0.00480327)
        Viscous  : (-9.02011e-09 -8.54165e-06 6.61282e-05)
    writing force and moment files.

Time = 13

smoothSolver:  Solving for Ux, Initial residual = 0.000585773, Final residual = 1.30517e-05, No Iterations 2
smoothSolver:  Solving for Uy, Initial residual = 0.00521143, Final residual = 0.000163538, No Iterations 2
smoothSolver:  Solving for Uz, Initial residual = 0.03943, Final residual = 0.0012289, No Iterations 2
GAMG:  Solving for p, Initial residual = 0.0350143, Final residual = 0.00281464, No Iterations 2
time step continuity errors : sum local = 4.31331e-05, global = 4.75365e-06, cumulative = 1.17236e-05
smoothSolver:  Solving for omega, Initial residual = 0.000373244, Final residual = 1.48968e-05, No Iterations 1
smoothSolver:  Solving for k, Initial residual = 0.0219424, Final residual = 0.000824765, No Iterations 1
ExecutionTime = 8.8 s  ClockTime = 9 s

forces forcesFish write:
    Sum of forces
        Total    : (0.300617 0.0480204 0.00528374)
        Pressure : (0.0834306 0.0479678 0.00526594)
        Viscous  : (0.217186 5.26114e-05 1.7801e-05)
    Sum of moments
        Total    : (6.4653e-05 -0.000306891 0.0128142)
        Pressure : (6.45191e-05 -0.000298182 0.0127233)
        Viscous  : (1.33874e-07 -8.70874e-06 9.08358e-05)
    writing force and moment files.

Time = 14

smoothSolver:  Solving for Ux, Initial residual = 0.000518293, Final residual = 1.15965e-05, No Iterations 2
smoothSolver:  Solving for Uy, Initial residual = 0.00538589, Final residual = 0.00017701, No Iterations 2
smoothSolver:  Solving for Uz, Initial residual = 0.0415229, Final residual = 0.00145677, No Iterations 2
GAMG:  Solving for p, Initial residual = 0.0356672, Final residual = 0.0026027, No Iterations 2
time step continuity errors : sum local = 3.53314e-05, global = 4.43727e-06, cumulative = 1.61609e-05
smoothSolver:  Solving for omega, Initial residual = 0.000324255, Final residual = 1.30878e-05, No Iterations 1
smoothSolver:  Solving for k, Initial residual = 0.0192484, Final residual = 0.000728582, No Iterations 1
ExecutionTime = 9.37 s  ClockTime = 9 s

forces forcesFish write:
    Sum of forces
        Total    : (0.355565 0.0577015 0.00437247)
        Pressure : (0.13899 0.057573 0.00435875)
        Viscous  : (0.216575 0.000128522 1.37188e-05)
    Sum of moments
        Total    : (3.59761e-05 0.000109993 0.0176589)
        Pressure : (3.56898e-05 0.000118289 0.0175533)
        Viscous  : (2.86348e-07 -8.29547e-06 0.000105614)
    writing force and moment files.

Time = 15

smoothSolver:  Solving for Ux, Initial residual = 0.000460746, Final residual = 1.06314e-05, No Iterations 2
smoothSolver:  Solving for Uy, Initial residual = 0.00570641, Final residual = 0.000204348, No Iterations 2
smoothSolver:  Solving for Uz, Initial residual = 0.0457461, Final residual = 0.00187087, No Iterations 2
GAMG:  Solving for p, Initial residual = 0.0370613, Final residual = 0.00240711, No Iterations 2
time step continuity errors : sum local = 2.95851e-05, global = 3.9774e-06, cumulative = 2.01383e-05
smoothSolver:  Solving for omega, Initial residual = 0.000282901, Final residual = 1.15366e-05, No Iterations 1
smoothSolver:  Solving for k, Initial residual = 0.016996, Final residual = 0.000647072, No Iterations 1
ExecutionTime = 9.92 s  ClockTime = 10 s

forces forcesFish write:
    Sum of forces
        Total    : (0.386977 0.0590828 0.00229088)
        Pressure : (0.171147 0.0588949 0.00228216)
        Viscous  : (0.21583 0.000187944 8.72127e-06)
    Sum of moments
        Total    : (1.56739e-05 0.000727826 0.0193159)
        Pressure : (1.52303e-05 0.000735063 0.0192004)
        Viscous  : (4.43566e-07 -7.23689e-06 0.000115531)
    writing force and moment files.

Time = 16

smoothSolver:  Solving for Ux, Initial residual = 0.000416239, Final residual = 9.62513e-06, No Iterations 2
smoothSolver:  Solving for Uy, Initial residual = 0.00587744, Final residual = 0.00021105, No Iterations 2
smoothSolver:  Solving for Uz, Initial residual = 0.0457378, Final residual = 0.00189822, No Iterations 2
GAMG:  Solving for p, Initial residual = 0.0386734, Final residual = 0.00246316, No Iterations 2
time step continuity errors : sum local = 2.86078e-05, global = 3.39283e-06, cumulative = 2.35311e-05
smoothSolver:  Solving for omega, Initial residual = 0.000247615, Final residual = 1.01894e-05, No Iterations 1
smoothSolver:  Solving for k, Initial residual = 0.0150762, Final residual = 0.000576762, No Iterations 1
ExecutionTime = 10.48 s  ClockTime = 10 s

forces forcesFish write:
    Sum of forces
        Total    : (0.398097 0.054609 -0.000425362)
        Pressure : (0.183083 0.0543787 -0.000430984)
        Viscous  : (0.215014 0.000230258 5.62163e-06)
    Sum of moments
        Total    : (4.91892e-06 0.0014162 0.0185418)
        Pressure : (4.38468e-06 0.00142274 0.0184202)
        Viscous  : (5.34238e-07 -6.53911e-06 0.000121605)
    writing force and moment files.

Time = 17

smoothSolver:  Solving for Ux, Initial residual = 0.000377001, Final residual = 8.55177e-06, No Iterations 2
smoothSolver:  Solving for Uy, Initial residual = 0.00575743, Final residual = 0.000195539, No Iterations 2
smoothSolver:  Solving for Uz, Initial residual = 0.0399924, Final residual = 0.00154115, No Iterations 2
GAMG:  Solving for p, Initial residual = 0.0390143, Final residual = 0.00247204, No Iterations 2
time step continuity errors : sum local = 2.83073e-05, global = 2.32284e-06, cumulative = 2.5854e-05
smoothSolver:  Solving for omega, Initial residual = 0.00021722, Final residual = 9.00052e-06, No Iterations 1
smoothSolver:  Solving for k, Initial residual = 0.0134347, Final residual = 0.000516101, No Iterations 1
ExecutionTime = 11.06 s  ClockTime = 11 s

forces forcesFish write:
    Sum of forces
        Total    : (0.395951 0.0467722 -0.00351088)
        Pressure : (0.18178 0.0465123 -0.00351463)
        Viscous  : (0.214171 0.000259975 3.75533e-06)
    Sum of moments
        Total    : (2.04612e-06 0.00211404 0.0162489)
        Pressure : (1.47048e-06 0.00212 0.0161232)
        Viscous  : (5.75646e-07 -5.95393e-06 0.000125709)
    writing force and moment files.

Time = 18

smoothSolver:  Solving for Ux, Initial residual = 0.00034324, Final residual = 7.55625e-06, No Iterations 2
smoothSolver:  Solving for Uy, Initial residual = 0.00538216, Final residual = 0.000162545, No Iterations 2
smoothSolver:  Solving for Uz, Initial residual = 0.032757, Final residual = 0.00107236, No Iterations 2
GAMG:  Solving for p, Initial residual = 0.0376052, Final residual = 0.00229435, No Iterations 2
time step continuity errors : sum local = 2.67214e-05, global = 1.09899e-06, cumulative = 2.6953e-05
smoothSolver:  Solving for omega, Initial residual = 0.000190884, Final residual = 7.94774e-06, No Iterations 1
smoothSolver:  Solving for k, Initial residual = 0.0120201, Final residual = 0.000463417, No Iterations 1
ExecutionTime = 11.6 s  ClockTime = 12 s

forces forcesFish write:
    Sum of forces
        Total    : (0.386888 0.0379364 -0.0065734)
        Pressure : (0.17356 0.0376551 -0.00657402)
        Viscous  : (0.213328 0.000281283 6.1067e-07)
    Sum of moments
        Total    : (6.06844e-06 0.00273587 0.0132982)
        Pressure : (5.45868e-06 0.00274044 0.0131693)
        Viscous  : (6.09764e-07 -4.56796e-06 0.000128883)
    writing force and moment files.

Time = 19

smoothSolver:  Solving for Ux, Initial residual = 0.000315237, Final residual = 6.63827e-06, No Iterations 2
smoothSolver:  Solving for Uy, Initial residual = 0.00490249, Final residual = 0.000121446, No Iterations 2
smoothSolver:  Solving for Uz, Initial residual = 0.0269924, Final residual = 0.000676991, No Iterations 2
GAMG:  Solving for p, Initial residual = 0.0343212, Final residual = 0.00198878, No Iterations 2
time step continuity errors : sum local = 2.40412e-05, global = -4.89215e-08, cumulative = 2.6904e-05
smoothSolver:  Solving for omega, Initial residual = 0.000167966, Final residual = 7.0186e-06, No Iterations 1
smoothSolver:  Solving for k, Initial residual = 0.0107843, Final residual = 0.000417054, No Iterations 1
ExecutionTime = 12.15 s  ClockTime = 12 s

forces forcesFish write:
    Sum of forces
        Total    : (0.376186 0.0302341 -0.00915965)
        Pressure : (0.163684 0.0299366 -0.00915943)
        Viscous  : (0.212503 0.000297496 -2.17632e-07)
    Sum of moments
        Total    : (1.59338e-05 0.00319923 0.0104688)
        Pressure : (1.53489e-05 0.00320316 0.0103372)
        Viscous  : (5.84871e-07 -3.93343e-06 0.000131593)
    writing force and moment files.

Time = 20

smoothSolver:  Solving for Ux, Initial residual = 0.000287658, Final residual = 5.81823e-06, No Iterations 2
smoothSolver:  Solving for Uy, Initial residual = 0.00453928, Final residual = 9.90688e-05, No Iterations 2
smoothSolver:  Solving for Uz, Initial residual = 0.0247605, Final residual = 0.000615554, No Iterations 2
GAMG:  Solving for p, Initial residual = 0.0297854, Final residual = 0.00168283, No Iterations 2
time step continuity errors : sum local = 2.1266e-05, global = -1.06406e-06, cumulative = 2.584e-05
smoothSolver:  Solving for omega, Initial residual = 0.000147979, Final residual = 6.20081e-06, No Iterations 1
smoothSolver:  Solving for k, Initial residual = 0.00970255, Final residual = 0.000376187, No Iterations 1
ExecutionTime = 12.7 s  ClockTime = 13 s

forces forcesFish write:
    Sum of forces
        Total    : (0.367493 0.0250085 -0.0109213)
        Pressure : (0.155792 0.0246937 -0.010923)
        Viscous  : (0.211701 0.000314758 1.73291e-06)
    Sum of moments
        Total    : (2.96367e-05 0.00345457 0.00829697)
        Pressure : (2.91275e-05 0.00345891 0.0081615)
        Viscous  : (5.09252e-07 -4.34632e-06 0.000135467)
    writing force and moment files.

Time = 21

smoothSolver:  Solving for Ux, Initial residual = 0.000257083, Final residual = 5.14947e-06, No Iterations 2
smoothSolver:  Solving for Uy, Initial residual = 0.00437732, Final residual = 9.92022e-05, No Iterations 2
smoothSolver:  Solving for Uz, Initial residual = 0.0237269, Final residual = 0.000674057, No Iterations 2
GAMG:  Solving for p, Initial residual = 0.0260961, Final residual = 0.00147604, No Iterations 2
time step continuity errors : sum local = 1.94057e-05, global = -1.97356e-06, cumulative = 2.38664e-05
smoothSolver:  Solving for omega, Initial residual = 0.000130499, Final residual = 5.48338e-06, No Iterations 1
smoothSolver:  Solving for k, Initial residual = 0.0087507, Final residual = 0.000340002, No Iterations 1
ExecutionTime = 13.28 s  ClockTime = 13 s

forces forcesFish write:
    Sum of forces
        Total    : (0.362352 0.0226098 -0.0117007)
        Pressure : (0.151434 0.022275 -0.0116987)
        Viscous  : (0.210918 0.000334856 -1.94761e-06)
    Sum of moments
        Total    : (4.42718e-05 0.00349333 0.00700274)
        Pressure : (4.37455e-05 0.0034959 0.00686229)
        Viscous  : (5.26268e-07 -2.56795e-06 0.000140456)
    writing force and moment files.

Time = 22

smoothSolver:  Solving for Ux, Initial residual = 0.000226351, Final residual = 4.62329e-06, No Iterations 2
smoothSolver:  Solving for Uy, Initial residual = 0.00424849, Final residual = 0.00010145, No Iterations 2
smoothSolver:  Solving for Uz, Initial residual = 0.0222025, Final residual = 0.0006885, No Iterations 2
GAMG:  Solving for p, Initial residual = 0.0240523, Final residual = 0.00139207, No Iterations 2
time step continuity errors : sum local = 1.8813e-05, global = -2.75129e-06, cumulative = 2.11151e-05
smoothSolver:  Solving for omega, Initial residual = 0.000115137, Final residual = 4.85386e-06, No Iterations 1
smoothSolver:  Solving for k, Initial residual = 0.0079037, Final residual = 0.000307623, No Iterations 1
ExecutionTime = 13.85 s  ClockTime = 14 s

forces forcesFish write:
    Sum of forces
        Total    : (0.360655 0.0225286 -0.0115661)
        Pressure : (0.150504 0.0221703 -0.0115669)
        Viscous  : (0.210151 0.000358288 7.5646e-07)
    Sum of moments
        Total    : (5.72995e-05 0.00334734 0.00651504)
        Pressure : (5.68524e-05 0.0033508 0.00636865)
        Viscous  : (4.47095e-07 -3.45442e-06 0.000146392)
    writing force and moment files.

Time = 23

smoothSolver:  Solving for Ux, Initial residual = 0.000197983, Final residual = 4.11634e-06, No Iterations 2
smoothSolver:  Solving for Uy, Initial residual = 0.00410932, Final residual = 9.80576e-05, No Iterations 2
smoothSolver:  Solving for Uz, Initial residual = 0.0206521, Final residual = 0.000638459, No Iterations 2
GAMG:  Solving for p, Initial residual = 0.0226091, Final residual = 0.00135891, No Iterations 2
time step continuity errors : sum local = 1.86384e-05, global = -3.29638e-06, cumulative = 1.78187e-05
smoothSolver:  Solving for omega, Initial residual = 0.000101576, Final residual = 4.30125e-06, No Iterations 1
smoothSolver:  Solving for k, Initial residual = 0.00714702, Final residual = 0.000278559, No Iterations 1
ExecutionTime = 14.41 s  ClockTime = 14 s

forces forcesFish write:
    Sum of forces
        Total    : (0.361319 0.023953 -0.0107074)
        Pressure : (0.151924 0.0235691 -0.0107077)
        Viscous  : (0.209396 0.000383954 3.61153e-07)
    Sum of moments
        Total    : (6.81081e-05 0.00306385 0.00661603)
        Pressure : (6.76747e-05 0.0030671 0.0064633)
        Viscous  : (4.33431e-07 -3.25464e-06 0.000152739)
    writing force and moment files.

Time = 24

smoothSolver:  Solving for Ux, Initial residual = 0.000174165, Final residual = 3.62663e-06, No Iterations 2
smoothSolver:  Solving for Uy, Initial residual = 0.00398258, Final residual = 8.90725e-05, No Iterations 2
smoothSolver:  Solving for Uz, Initial residual = 0.0187185, Final residual = 0.000527576, No Iterations 2
GAMG:  Solving for p, Initial residual = 0.0211271, Final residual = 0.00128317, No Iterations 2
time step continuity errors : sum local = 1.76629e-05, global = -3.54108e-06, cumulative = 1.42777e-05
smoothSolver:  Solving for omega, Initial residual = 8.95737e-05, Final residual = 3.81549e-06, No Iterations 1
smoothSolver:  Solving for k, Initial residual = 0.00646896, Final residual = 0.000252414, No Iterations 1
ExecutionTime = 15 s  ClockTime = 15 s

forces forcesFish write:
    Sum of forces
        Total    : (0.362999 0.0261278 -0.00930225)
        Pressure : (0.15435 0.0257166 -0.00930242)
        Viscous  : (0.208648 0.000411192 1.638e-07)
    Sum of moments
        Total    : (7.63427e-05 0.00268547 0.00707367)
        Pressure : (7.591e-05 0.00268872 0.00691435)
        Viscous  : (4.32673e-07 -3.24704e-06 0.000159323)
    writing force and moment files.

Time = 25

smoothSolver:  Solving for Ux, Initial residual = 0.000158431, Final residual = 1.55619e-05, No Iterations 1
smoothSolver:  Solving for Uy, Initial residual = 0.00386769, Final residual = 7.7442e-05, No Iterations 2
smoothSolver:  Solving for Uz, Initial residual = 0.0167544, Final residual = 0.000388604, No Iterations 2
GAMG:  Solving for p, Initial residual = 0.0199659, Final residual = 0.00117429, No Iterations 2
time step continuity errors : sum local = 1.60729e-05, global = -3.53664e-06, cumulative = 1.0741e-05
smoothSolver:  Solving for omega, Initial residual = 7.8907e-05, Final residual = 3.38628e-06, No Iterations 1
smoothSolver:  Solving for k, Initial residual = 0.00585636, Final residual = 0.000228738, No Iterations 1
ExecutionTime = 15.54 s  ClockTime = 15 s

forces forcesFish write:
    Sum of forces
        Total    : (0.364661 0.0283918 -0.00759353)
        Pressure : (0.156693 0.0279523 -0.00759594)
        Viscous  : (0.207968 0.000439501 2.4123e-06)
    Sum of moments
        Total    : (8.13938e-05 0.00227132 0.00768251)
        Pressure : (8.09861e-05 0.00227564 0.00751605)
        Viscous  : (4.0769e-07 -4.31963e-06 0.00016646)
    writing force and moment files.

Time = 26

smoothSolver:  Solving for Ux, Initial residual = 0.000149832, Final residual = 1.39467e-05, No Iterations 1
smoothSolver:  Solving for Uy, Initial residual = 0.00376444, Final residual = 6.92454e-05, No Iterations 2
smoothSolver:  Solving for Uz, Initial residual = 0.0153216, Final residual = 0.000283993, No Iterations 2
GAMG:  Solving for p, Initial residual = 0.0191903, Final residual = 0.00105635, No Iterations 2
time step continuity errors : sum local = 1.42952e-05, global = -3.33678e-06, cumulative = 7.40425e-06
smoothSolver:  Solving for omega, Initial residual = 6.94068e-05, Final residual = 3.00541e-06, No Iterations 1
smoothSolver:  Solving for k, Initial residual = 0.00529973, Final residual = 0.000207186, No Iterations 1
ExecutionTime = 16.09 s  ClockTime = 16 s

forces forcesFish write:
    Sum of forces
        Total    : (0.365332 0.0301199 -0.00589421)
        Pressure : (0.158042 0.0296519 -0.00589894)
        Viscous  : (0.20729 0.00046801 4.73859e-06)
    Sum of moments
        Total    : (8.32487e-05 0.00189513 0.00823345)
        Pressure : (8.28617e-05 0.00190062 0.00805975)
        Viscous  : (3.87e-07 -5.49704e-06 0.000173701)
    writing force and moment files.

Time = 27

smoothSolver:  Solving for Ux, Initial residual = 0.000141795, Final residual = 1.25757e-05, No Iterations 1
smoothSolver:  Solving for Uy, Initial residual = 0.00364277, Final residual = 0.000361655, No Iterations 1
smoothSolver:  Solving for Uz, Initial residual = 0.0145004, Final residual = 0.00140971, No Iterations 1
GAMG:  Solving for p, Initial residual = 0.017883, Final residual = 0.000939387, No Iterations 2
time step continuity errors : sum local = 1.25359e-05, global = -2.96259e-06, cumulative = 4.44166e-06
smoothSolver:  Solving for omega, Initial residual = 6.09154e-05, Final residual = 2.6647e-06, No Iterations 1
smoothSolver:  Solving for k, Initial residual = 0.0047937, Final residual = 0.00018758, No Iterations 1
ExecutionTime = 16.62 s  ClockTime = 17 s

forces forcesFish write:
    Sum of forces
        Total    : (0.364613 0.0309783 -0.0044873)
        Pressure : (0.157998 0.0304873 -0.00449493)
        Viscous  : (0.206615 0.000490961 7.62951e-06)
    Sum of moments
        Total    : (8.3141e-05 0.001617 0.00857951)
        Pressure : (8.27767e-05 0.00162385 0.00840048)
        Viscous  : (3.64213e-07 -6.84783e-06 0.000179029)
    writing force and moment files.

Time = 28

smoothSolver:  Solving for Ux, Initial residual = 0.000134288, Final residual = 1.15084e-05, No Iterations 1
smoothSolver:  Solving for Uy, Initial residual = 0.00350601, Final residual = 0.000349452, No Iterations 1
smoothSolver:  Solving for Uz, Initial residual = 0.0139633, Final residual = 0.00139085, No Iterations 1
GAMG:  Solving for p, Initial residual = 0.0164831, Final residual = 0.00085605, No Iterations 2
time step continuity errors : sum local = 1.1268e-05, global = -2.46746e-06, cumulative = 1.9742e-06
smoothSolver:  Solving for omega, Initial residual = 5.3318e-05, Final residual = 2.3614e-06, No Iterations 1
smoothSolver:  Solving for k, Initial residual = 0.00433139, Final residual = 0.000169676, No Iterations 1
ExecutionTime = 17.17 s  ClockTime = 17 s

forces forcesFish write:
    Sum of forces
        Total    : (0.36265 0.0309626 -0.00353342)
        Pressure : (0.156701 0.0304499 -0.00354319)
        Viscous  : (0.205949 0.000512733 9.77379e-06)
    Sum of moments
        Total    : (8.1788e-05 0.00146653 0.00869406)
        Pressure : (8.14381e-05 0.0014744 0.00850993)
        Viscous  : (3.4985e-07 -7.87333e-06 0.000184129)
    writing force and moment files.

Time = 29

smoothSolver:  Solving for Ux, Initial residual = 0.000126705, Final residual = 1.05642e-05, No Iterations 1
smoothSolver:  Solving for Uy, Initial residual = 0.00329597, Final residual = 0.00032709, No Iterations 1
smoothSolver:  Solving for Uz, Initial residual = 0.0129899, Final residual = 0.000249709, No Iterations 2
GAMG:  Solving for p, Initial residual = 0.015626, Final residual = 0.000816619, No Iterations 2
time step continuity errors : sum local = 1.06275e-05, global = -1.9138e-06, cumulative = 6.03941e-08
smoothSolver:  Solving for omega, Initial residual = 4.65227e-05, Final residual = 2.09139e-06, No Iterations 1
smoothSolver:  Solving for k, Initial residual = 0.00390544, Final residual = 0.000153203, No Iterations 1
ExecutionTime = 17.73 s  ClockTime = 18 s

forces forcesFish write:
    Sum of forces
        Total    : (0.359732 0.030182 -0.00311657)
        Pressure : (0.154438 0.0296489 -0.00312744)
        Viscous  : (0.205295 0.000533075 1.08728e-05)
    Sum of moments
        Total    : (7.95821e-05 0.00145474 0.00858995)
        Pressure : (7.92343e-05 0.0014632 0.00840094)
        Viscous  : (3.47751e-07 -8.46401e-06 0.000189005)
    writing force and moment files.

Time = 30

smoothSolver:  Solving for Ux, Initial residual = 0.000118261, Final residual = 9.69892e-06, No Iterations 1
smoothSolver:  Solving for Uy, Initial residual = 0.00306168, Final residual = 0.000296834, No Iterations 1
smoothSolver:  Solving for Uz, Initial residual = 0.0116867, Final residual = 0.00115723, No Iterations 1
GAMG:  Solving for p, Initial residual = 0.0146224, Final residual = 0.000764184, No Iterations 2
time step continuity errors : sum local = 9.87182e-06, global = -1.32603e-06, cumulative = -1.26564e-06
smoothSolver:  Solving for omega, Initial residual = 4.04417e-05, Final residual = 1.85002e-06, No Iterations 1
smoothSolver:  Solving for k, Initial residual = 0.00351421, Final residual = 0.000138114, No Iterations 1
ExecutionTime = 18.29 s  ClockTime = 18 s

forces forcesFish write:
    Sum of forces
        Total    : (0.35635 0.0289191 -0.00317119)
        Pressure : (0.151695 0.0283669 -0.00318293)
        Viscous  : (0.204654 0.000552223 1.17384e-05)
    Sum of moments
        Total    : (7.76332e-05 0.00156123 0.00833103)
        Pressure : (7.72908e-05 0.00157009 0.00813729)
        Viscous  : (3.42472e-07 -8.86543e-06 0.000193741)
    writing force and moment files.

Time = 31

smoothSolver:  Solving for Ux, Initial residual = 0.000109821, Final residual = 8.96254e-06, No Iterations 1
smoothSolver:  Solving for Uy, Initial residual = 0.00283443, Final residual = 0.000262521, No Iterations 1
smoothSolver:  Solving for Uz, Initial residual = 0.0106768, Final residual = 0.000982545, No Iterations 1
GAMG:  Solving for p, Initial residual = 0.0135035, Final residual = 0.00069924, No Iterations 2
time step continuity errors : sum local = 8.99755e-06, global = -6.6536e-07, cumulative = -1.931e-06
smoothSolver:  Solving for omega, Initial residual = 3.50135e-05, Final residual = 1.63488e-06, No Iterations 1
smoothSolver:  Solving for k, Initial residual = 0.00315402, Final residual = 0.000124274, No Iterations 1
ExecutionTime = 18.83 s  ClockTime = 19 s

forces forcesFish write:
    Sum of forces
        Total    : (0.352894 0.0273969 -0.00363817)
        Pressure : (0.148864 0.026827 -0.00365029)
        Viscous  : (0.20403 0.000569882 1.21216e-05)
    Sum of moments
        Total    : (7.64042e-05 0.00176659 0.00797446)
        Pressure : (7.60627e-05 0.00177562 0.00777624)
        Viscous  : (3.41449e-07 -9.03117e-06 0.000198214)
    writing force and moment files.

Time = 32

smoothSolver:  Solving for Ux, Initial residual = 0.000102427, Final residual = 8.33979e-06, No Iterations 1
smoothSolver:  Solving for Uy, Initial residual = 0.00263438, Final residual = 0.000228033, No Iterations 1
smoothSolver:  Solving for Uz, Initial residual = 0.00970758, Final residual = 0.000813441, No Iterations 1
GAMG:  Solving for p, Initial residual = 0.0124303, Final residual = 0.000638815, No Iterations 2
time step continuity errors : sum local = 8.2105e-06, global = -3.20337e-08, cumulative = -1.96303e-06
smoothSolver:  Solving for omega, Initial residual = 3.01805e-05, Final residual = 1.44432e-06, No Iterations 1
smoothSolver:  Solving for k, Initial residual = 0.00282113, Final residual = 0.000111544, No Iterations 1
ExecutionTime = 19.35 s  ClockTime = 19 s

forces forcesFish write:
    Sum of forces
        Total    : (0.34969 0.0258378 -0.00442082)
        Pressure : (0.146267 0.0252515 -0.00443311)
        Viscous  : (0.203423 0.000586304 1.22865e-05)
    Sum of moments
        Total    : (7.62401e-05 0.00204194 0.00758144)
        Pressure : (7.59005e-05 0.002051 0.00737892)
        Viscous  : (3.39641e-07 -9.06675e-06 0.000202514)
    writing force and moment files.

Time = 33

smoothSolver:  Solving for Ux, Initial residual = 9.63708e-05, Final residual = 7.82892e-06, No Iterations 1
smoothSolver:  Solving for Uy, Initial residual = 0.00250016, Final residual = 0.000200057, No Iterations 1
smoothSolver:  Solving for Uz, Initial residual = 0.00891734, Final residual = 0.000712385, No Iterations 1
GAMG:  Solving for p, Initial residual = 0.0115245, Final residual = 0.000585168, No Iterations 2
time step continuity errors : sum local = 7.52767e-06, global = 4.84215e-07, cumulative = -1.47882e-06
smoothSolver:  Solving for omega, Initial residual = 2.58957e-05, Final residual = 1.27598e-06, No Iterations 1
smoothSolver:  Solving for k, Initial residual = 0.00251353, Final residual = 9.98483e-05, No Iterations 1
ExecutionTime = 19.9 s  ClockTime = 20 s

forces forcesFish write:
    Sum of forces
        Total    : (0.346947 0.0244261 -0.0053905)
        Pressure : (0.144112 0.0238246 -0.00540248)
        Viscous  : (0.202835 0.000601523 1.19803e-05)
    Sum of moments
        Total    : (7.7292e-05 0.00235158 0.00720564)
        Pressure : (7.69468e-05 0.00236045 0.006999)
        Viscous  : (3.45253e-07 -8.86476e-06 0.00020664)
    writing force and moment files.

Time = 34

smoothSolver:  Solving for Ux, Initial residual = 9.17623e-05, Final residual = 7.40626e-06, No Iterations 1
smoothSolver:  Solving for Uy, Initial residual = 0.00241762, Final residual = 0.000182633, No Iterations 1
smoothSolver:  Solving for Uz, Initial residual = 0.00831043, Final residual = 0.000656436, No Iterations 1
GAMG:  Solving for p, Initial residual = 0.0106588, Final residual = 0.000538847, No Iterations 2
time step continuity errors : sum local = 6.94666e-06, global = 9.22809e-07, cumulative = -5.56008e-07
smoothSolver:  Solving for omega, Initial residual = 2.21155e-05, Final residual = 1.1276e-06, No Iterations 1
smoothSolver:  Solving for k, Initial residual = 0.00223024, Final residual = 8.91487e-05, No Iterations 1
ExecutionTime = 20.44 s  ClockTime = 20 s

forces forcesFish write:
    Sum of forces
        Total    : (0.34474 0.0232799 -0.00641085)
        Pressure : (0.142475 0.0226642 -0.00642255)
        Viscous  : (0.202265 0.000615752 1.16982e-05)
    Sum of moments
        Total    : (7.94759e-05 0.00265961 0.00688474)
        Pressure : (7.91265e-05 0.00266825 0.00667408)
        Viscous  : (3.49425e-07 -8.64771e-06 0.000210659)
    writing force and moment files.

Time = 35

smoothSolver:  Solving for Ux, Initial residual = 8.73096e-05, Final residual = 7.00276e-06, No Iterations 1
smoothSolver:  Solving for Uy, Initial residual = 0.00235107, Final residual = 0.00017289, No Iterations 1
smoothSolver:  Solving for Uz, Initial residual = 0.00777861, Final residual = 0.000612504, No Iterations 1
GAMG:  Solving for p, Initial residual = 0.00985361, Final residual = 0.000491199, No Iterations 2
time step continuity errors : sum local = 6.34748e-06, global = 1.22023e-06, cumulative = 6.64224e-07
smoothSolver:  Solving for omega, Initial residual = 1.87997e-05, Final residual = 9.97304e-07, No Iterations 1
smoothSolver:  Solving for k, Initial residual = 0.00196981, Final residual = 7.93865e-05, No Iterations 1
ExecutionTime = 20.99 s  ClockTime = 21 s

forces forcesFish write:
    Sum of forces
        Total    : (0.343039 0.0224413 -0.00736423)
        Pressure : (0.141326 0.0218122 -0.00737546)
        Viscous  : (0.201713 0.000629072 1.12257e-05)
    Sum of moments
        Total    : (8.24948e-05 0.00293627 0.00663659)
        Pressure : (8.2137e-05 0.00294462 0.00642201)
        Viscous  : (3.5781e-07 -8.34999e-06 0.000214575)
    writing force and moment files.

Time = 36

smoothSolver:  Solving for Ux, Initial residual = 8.12375e-05, Final residual = 6.54566e-06, No Iterations 1
smoothSolver:  Solving for Uy, Initial residual = 0.00228759, Final residual = 0.000168859, No Iterations 1
smoothSolver:  Solving for Uz, Initial residual = 0.00720753, Final residual = 0.000566497, No Iterations 1
GAMG:  Solving for p, Initial residual = 0.00920119, Final residual = 0.000440511, No Iterations 2
time step continuity errors : sum local = 5.7038e-06, global = 1.35186e-06, cumulative = 2.01609e-06
smoothSolver:  Solving for omega, Initial residual = 1.59083e-05, Final residual = 8.83015e-07, No Iterations 1
smoothSolver:  Solving for k, Initial residual = 0.00173066, Final residual = 7.04924e-05, No Iterations 1
ExecutionTime = 21.52 s  ClockTime = 21 s

forces forcesFish write:
    Sum of forces
        Total    : (0.341748 0.0218956 -0.00816736)
        Pressure : (0.14057 0.0212541 -0.00817822)
        Viscous  : (0.201178 0.00064148 1.08608e-05)
    Sum of moments
        Total    : (8.5989e-05 0.00316161 0.00646331)
        Pressure : (8.56243e-05 0.00316971 0.00624493)
        Viscous  : (3.64767e-07 -8.09485e-06 0.000218375)
    writing force and moment files.

Time = 37

smoothSolver:  Solving for Ux, Initial residual = 7.31853e-05, Final residual = 6.01093e-06, No Iterations 1
smoothSolver:  Solving for Uy, Initial residual = 0.00222119, Final residual = 0.000165454, No Iterations 1
smoothSolver:  Solving for Uz, Initial residual = 0.0066449, Final residual = 0.000516749, No Iterations 1
GAMG:  Solving for p, Initial residual = 0.00864649, Final residual = 0.000399633, No Iterations 2
time step continuity errors : sum local = 5.18103e-06, global = 1.35232e-06, cumulative = 3.36841e-06
smoothSolver:  Solving for omega, Initial residual = 1.34028e-05, Final residual = 7.82919e-07, No Iterations 1
smoothSolver:  Solving for k, Initial residual = 0.00151211, Final residual = 6.24286e-05, No Iterations 1
ExecutionTime = 22.05 s  ClockTime = 22 s

forces forcesFish write:
    Sum of forces
        Total    : (0.340756 0.0215969 -0.00876253)
        Pressure : (0.140095 0.0209437 -0.00877244)
        Viscous  : (0.200661 0.00065323 9.91262e-06)
    Sum of moments
        Total    : (8.95217e-05 0.00332212 0.00635718)
        Pressure : (8.9139e-05 0.00332974 0.00613504)
        Viscous  : (3.82671e-07 -7.61864e-06 0.00022214)
    writing force and moment files.

Time = 38

smoothSolver:  Solving for Ux, Initial residual = 6.4784e-05, Final residual = 5.44373e-06, No Iterations 1
smoothSolver:  Solving for Uy, Initial residual = 0.00216417, Final residual = 0.0001613, No Iterations 1
smoothSolver:  Solving for Uz, Initial residual = 0.00611042, Final residual = 0.00045656, No Iterations 1
GAMG:  Solving for p, Initial residual = 0.00809918, Final residual = 0.000374818, No Iterations 2
time step continuity errors : sum local = 4.86082e-06, global = 1.28057e-06, cumulative = 4.64898e-06
smoothSolver:  Solving for omega, Initial residual = 1.12467e-05, Final residual = 6.9533e-07, No Iterations 1
smoothSolver:  Solving for k, Initial residual = 0.00131377, Final residual = 5.51678e-05, No Iterations 1
ExecutionTime = 22.58 s  ClockTime = 23 s

forces forcesFish write:
    Sum of forces
        Total    : (0.339941 0.0214843 -0.00912215)
        Pressure : (0.139782 0.0208202 -0.00913173)
        Viscous  : (0.200159 0.000664151 9.57934e-06)
    Sum of moments
        Total    : (9.27153e-05 0.00341291 0.00630486)
        Pressure : (9.23246e-05 0.00342033 0.00607911)
        Viscous  : (3.90649e-07 -7.41439e-06 0.000225749)
    writing force and moment files.

Time = 39

smoothSolver:  Solving for Ux, Initial residual = 5.85143e-05, Final residual = 4.9573e-06, No Iterations 1
smoothSolver:  Solving for Uy, Initial residual = 0.0021218, Final residual = 0.000156895, No Iterations 1
smoothSolver:  Solving for Uz, Initial residual = 0.00562207, Final residual = 0.000397088, No Iterations 1
GAMG:  Solving for p, Initial residual = 0.00753558, Final residual = 0.000351164, No Iterations 2
time step continuity errors : sum local = 4.55084e-06, global = 1.15993e-06, cumulative = 5.80892e-06
smoothSolver:  Solving for omega, Initial residual = 9.40542e-06, Final residual = 6.18747e-07, No Iterations 1
smoothSolver:  Solving for k, Initial residual = 0.00113488, Final residual = 4.86643e-05, No Iterations 1
ExecutionTime = 23.13 s  ClockTime = 23 s

forces forcesFish write:
    Sum of forces
        Total    : (0.339224 0.0214849 -0.00925293)
        Pressure : (0.139551 0.0208106 -0.00926185)
        Viscous  : (0.199673 0.000674242 8.9213e-06)
    Sum of moments
        Total    : (9.52294e-05 0.00343819 0.00628883)
        Pressure : (9.48253e-05 0.00344529 0.00605964)
        Viscous  : (4.04074e-07 -7.10825e-06 0.000229191)
    writing force and moment files.

Time = 40

smoothSolver:  Solving for Ux, Initial residual = 5.51986e-05, Final residual = 4.62059e-06, No Iterations 1
smoothSolver:  Solving for Uy, Initial residual = 0.00209759, Final residual = 0.000153056, No Iterations 1
smoothSolver:  Solving for Uz, Initial residual = 0.00515414, Final residual = 0.000342835, No Iterations 1
GAMG:  Solving for p, Initial residual = 0.00700285, Final residual = 0.000323151, No Iterations 2
time step continuity errors : sum local = 4.18153e-06, global = 9.94713e-07, cumulative = 6.80363e-06
smoothSolver:  Solving for omega, Initial residual = 7.84586e-06, Final residual = 5.51936e-07, No Iterations 1
smoothSolver:  Solving for k, Initial residual = 0.000974657, Final residual = 4.28707e-05, No Iterations 1
ExecutionTime = 23.68 s  ClockTime = 24 s

forces forcesFish write:
    Sum of forces
        Total    : (0.338544 0.0215298 -0.00919582)
        Pressure : (0.139341 0.0208462 -0.00920408)
        Viscous  : (0.199203 0.000683645 8.2621e-06)
    Sum of moments
        Total    : (9.68785e-05 0.0034112 0.00629144)
        Pressure : (9.64619e-05 0.00341802 0.00605895)
        Viscous  : (4.16567e-07 -6.8228e-06 0.000232489)
    writing force and moment files.

Time = 41

smoothSolver:  Solving for Ux, Initial residual = 5.30504e-05, Final residual = 4.35742e-06, No Iterations 1
smoothSolver:  Solving for Uy, Initial residual = 0.00207844, Final residual = 0.000149749, No Iterations 1
smoothSolver:  Solving for Uz, Initial residual = 0.00470946, Final residual = 0.000297613, No Iterations 1
GAMG:  Solving for p, Initial residual = 0.00650699, Final residual = 0.000293531, No Iterations 2
time step continuity errors : sum local = 3.79071e-06, global = 7.83608e-07, cumulative = 7.58724e-06
smoothSolver:  Solving for omega, Initial residual = 6.53302e-06, Final residual = 4.93861e-07, No Iterations 1
smoothSolver:  Solving for k, Initial residual = 0.000831931, Final residual = 3.77228e-05, No Iterations 1
ExecutionTime = 24.23 s  ClockTime = 24 s

forces forcesFish write:
    Sum of forces
        Total    : (0.337879 0.0215638 -0.00901129)
        Pressure : (0.139131 0.0208721 -0.0090186)
        Viscous  : (0.198748 0.000691672 7.3098e-06)
    Sum of moments
        Total    : (9.76283e-05 0.00334985 0.00629733)
        Pressure : (9.71937e-05 0.00335629 0.00606199)
        Viscous  : (4.34553e-07 -6.44549e-06 0.000235339)
    writing force and moment files.

Time = 42

smoothSolver:  Solving for Ux, Initial residual = 5.16199e-05, Final residual = 4.15277e-06, No Iterations 1
smoothSolver:  Solving for Uy, Initial residual = 0.00207484, Final residual = 0.00014723, No Iterations 1
smoothSolver:  Solving for Uz, Initial residual = 0.00427081, Final residual = 0.000260972, No Iterations 1
GAMG:  Solving for p, Initial residual = 0.00602819, Final residual = 0.000268132, No Iterations 2
time step continuity errors : sum local = 3.45563e-06, global = 5.40006e-07, cumulative = 8.12724e-06
smoothSolver:  Solving for omega, Initial residual = 5.43775e-06, Final residual = 4.43085e-07, No Iterations 1
smoothSolver:  Solving for k, Initial residual = 0.000706164, Final residual = 3.31867e-05, No Iterations 1
ExecutionTime = 24.75 s  ClockTime = 25 s

forces forcesFish write:
    Sum of forces
        Total    : (0.337217 0.0215549 -0.00876238)
        Pressure : (0.138908 0.0208559 -0.00876926)
        Viscous  : (0.198309 0.000698991 6.88338e-06)
    Sum of moments
        Total    : (9.75727e-05 0.00327204 0.00629649)
        Pressure : (9.7132e-05 0.00327833 0.00605853)
        Viscous  : (4.40774e-07 -6.29494e-06 0.000237965)
    writing force and moment files.

Time = 43

smoothSolver:  Solving for Ux, Initial residual = 5.0545e-05, Final residual = 3.9878e-06, No Iterations 1
smoothSolver:  Solving for Uy, Initial residual = 0.00209478, Final residual = 0.000146357, No Iterations 1
smoothSolver:  Solving for Uz, Initial residual = 0.0039022, Final residual = 0.00023485, No Iterations 1
GAMG:  Solving for p, Initial residual = 0.00557283, Final residual = 0.000246428, No Iterations 2
time step continuity errors : sum local = 3.17027e-06, global = 2.81346e-07, cumulative = 8.40859e-06
smoothSolver:  Solving for omega, Initial residual = 4.53124e-06, Final residual = 3.98715e-07, No Iterations 1
smoothSolver:  Solving for k, Initial residual = 0.000596297, Final residual = 2.92091e-05, No Iterations 1
ExecutionTime = 25.31 s  ClockTime = 25 s

forces forcesFish write:
    Sum of forces
        Total    : (0.336571 0.021488 -0.00850093)
        Pressure : (0.138685 0.0207825 -0.00850709)
        Viscous  : (0.197886 0.000705504 6.1629e-06)
    Sum of moments
        Total    : (9.68696e-05 0.00319205 0.00628288)
        Pressure : (9.64194e-05 0.00319809 0.00604257)
        Viscous  : (4.50224e-07 -6.03743e-06 0.000240315)
    writing force and moment files.

Time = 44

smoothSolver:  Solving for Ux, Initial residual = 4.89669e-05, Final residual = 3.82309e-06, No Iterations 1
smoothSolver:  Solving for Uy, Initial residual = 0.00210715, Final residual = 0.000145716, No Iterations 1
smoothSolver:  Solving for Uz, Initial residual = 0.00360837, Final residual = 0.000218396, No Iterations 1
GAMG:  Solving for p, Initial residual = 0.00516175, Final residual = 0.00022741, No Iterations 2
time step continuity errors : sum local = 2.92174e-06, global = 5.77802e-08, cumulative = 8.46637e-06
smoothSolver:  Solving for omega, Initial residual = 3.78426e-06, Final residual = 3.60089e-07, No Iterations 1
smoothSolver:  Solving for k, Initial residual = 0.00050116, Final residual = 2.57363e-05, No Iterations 1
ExecutionTime = 25.88 s  ClockTime = 26 s

forces forcesFish write:
    Sum of forces
        Total    : (0.335955 0.0213615 -0.00826365)
        Pressure : (0.138477 0.0206506 -0.008269)
        Viscous  : (0.197478 0.000710911 5.35305e-06)
    Sum of moments
        Total    : (9.5721e-05 0.00311985 0.00625392)
        Pressure : (9.52595e-05 0.00312559 0.00601167)
        Viscous  : (4.61543e-07 -5.74753e-06 0.000242245)
    writing force and moment files.

Time = 45

smoothSolver:  Solving for Ux, Initial residual = 4.62827e-05, Final residual = 3.63482e-06, No Iterations 1
smoothSolver:  Solving for Uy, Initial residual = 0.00210525, Final residual = 0.000144937, No Iterations 1
smoothSolver:  Solving for Uz, Initial residual = 0.00337313, Final residual = 0.000205687, No Iterations 1
GAMG:  Solving for p, Initial residual = 0.00479169, Final residual = 0.000216035, No Iterations 2
time step continuity errors : sum local = 2.77327e-06, global = -1.11621e-07, cumulative = 8.35475e-06
smoothSolver:  Solving for omega, Initial residual = 3.17291e-06, Final residual = 6.42918e-08, No Iterations 2
smoothSolver:  Solving for k, Initial residual = 0.000419481, Final residual = 2.27175e-05, No Iterations 1
ExecutionTime = 26.42 s  ClockTime = 26 s

forces forcesFish write:
    Sum of forces
        Total    : (0.335375 0.0211846 -0.00807042)
        Pressure : (0.138291 0.0204695 -0.00807594)
        Viscous  : (0.197085 0.000715092 5.52059e-06)
    Sum of moments
        Total    : (9.42876e-05 0.00306048 0.00621027)
        Pressure : (9.38318e-05 0.00306632 0.00596659)
        Viscous  : (4.5578e-07 -5.84425e-06 0.000243678)
    writing force and moment files.

Time = 46

smoothSolver:  Solving for Ux, Initial residual = 4.27321e-05, Final residual = 3.42272e-06, No Iterations 1
smoothSolver:  Solving for Uy, Initial residual = 0.00208536, Final residual = 0.000143578, No Iterations 1
smoothSolver:  Solving for Uz, Initial residual = 0.00318277, Final residual = 0.00019384, No Iterations 1
GAMG:  Solving for p, Initial residual = 0.00446199, Final residual = 0.00020933, No Iterations 2
time step continuity errors : sum local = 2.68621e-06, global = -2.01075e-07, cumulative = 8.15367e-06
smoothSolver:  Solving for omega, Initial residual = 2.62178e-06, Final residual = 5.77501e-08, No Iterations 2
smoothSolver:  Solving for k, Initial residual = 0.000349978, Final residual = 2.0098e-05, No Iterations 1
ExecutionTime = 26.98 s  ClockTime = 27 s

forces forcesFish write:
    Sum of forces
        Total    : (0.334854 0.020971 -0.00793015)
        Pressure : (0.138145 0.0202516 -0.00793467)
        Viscous  : (0.196709 0.000719451 4.52179e-06)
    Sum of moments
        Total    : (9.27402e-05 0.00301619 0.00615457)
        Pressure : (9.2273e-05 0.00302166 0.00590936)
        Viscous  : (4.67173e-07 -5.47007e-06 0.000245209)
    writing force and moment files.

Time = 47

smoothSolver:  Solving for Ux, Initial residual = 3.84498e-05, Final residual = 3.18533e-06, No Iterations 1
smoothSolver:  Solving for Uy, Initial residual = 0.00205968, Final residual = 0.000141754, No Iterations 1
smoothSolver:  Solving for Uz, Initial residual = 0.00299693, Final residual = 0.000181684, No Iterations 1
GAMG:  Solving for p, Initial residual = 0.00416499, Final residual = 0.000196061, No Iterations 2
time step continuity errors : sum local = 2.51601e-06, global = -2.39401e-07, cumulative = 7.91427e-06
smoothSolver:  Solving for omega, Initial residual = 2.18081e-06, Final residual = 5.14551e-08, No Iterations 2
smoothSolver:  Solving for k, Initial residual = 0.000291303, Final residual = 1.7825e-05, No Iterations 1
ExecutionTime = 27.54 s  ClockTime = 27 s

forces forcesFish write:
    Sum of forces
        Total    : (0.334384 0.0207385 -0.00783971)
        Pressure : (0.138037 0.0200166 -0.00784396)
        Viscous  : (0.196347 0.000721913 4.25436e-06)
    Sum of moments
        Total    : (9.11814e-05 0.00298551 0.00609061)
        Pressure : (9.07111e-05 0.00299089 0.00584465)
        Viscous  : (4.70271e-07 -5.38036e-06 0.000245964)
    writing force and moment files.

Time = 48

smoothSolver:  Solving for Ux, Initial residual = 3.39768e-05, Final residual = 2.94456e-06, No Iterations 1
smoothSolver:  Solving for Uy, Initial residual = 0.00201941, Final residual = 0.000138807, No Iterations 1
smoothSolver:  Solving for Uz, Initial residual = 0.00281, Final residual = 0.000169138, No Iterations 1
GAMG:  Solving for p, Initial residual = 0.00389717, Final residual = 0.000180333, No Iterations 2
time step continuity errors : sum local = 2.31484e-06, global = -2.6199e-07, cumulative = 7.65228e-06
smoothSolver:  Solving for omega, Initial residual = 1.82883e-06, Final residual = 4.59165e-08, No Iterations 2
smoothSolver:  Solving for k, Initial residual = 0.000242195, Final residual = 1.58566e-05, No Iterations 1
ExecutionTime = 28.1 s  ClockTime = 28 s

forces forcesFish write:
    Sum of forces
        Total    : (0.333952 0.0205102 -0.00778812)
        Pressure : (0.137951 0.0197859 -0.00779256)
        Viscous  : (0.196001 0.000724333 4.44219e-06)
    Sum of moments
        Total    : (8.97008e-05 0.00296495 0.00602465)
        Pressure : (8.92381e-05 0.00297041 0.00577795)
        Viscous  : (4.62679e-07 -5.46354e-06 0.000246701)
    writing force and moment files.

Time = 49

smoothSolver:  Solving for Ux, Initial residual = 3.04394e-05, Final residual = 2.7337e-06, No Iterations 1
smoothSolver:  Solving for Uy, Initial residual = 0.00197617, Final residual = 0.000136112, No Iterations 1
smoothSolver:  Solving for Uz, Initial residual = 0.00262104, Final residual = 0.000156173, No Iterations 1
GAMG:  Solving for p, Initial residual = 0.00365031, Final residual = 0.000165215, No Iterations 2
time step continuity errors : sum local = 2.12152e-06, global = -2.8424e-07, cumulative = 7.36804e-06
smoothSolver:  Solving for omega, Initial residual = 1.55079e-06, Final residual = 4.11305e-08, No Iterations 2
smoothSolver:  Solving for k, Initial residual = 0.000201396, Final residual = 1.41514e-05, No Iterations 1
ExecutionTime = 28.67 s  ClockTime = 29 s

forces forcesFish write:
    Sum of forces
        Total    : (0.333548 0.0203022 -0.00775677)
        Pressure : (0.137876 0.0195758 -0.00776007)
        Viscous  : (0.195671 0.000726357 3.29958e-06)
    Sum of moments
        Total    : (8.832e-05 0.00294887 0.00596134)
        Pressure : (8.78402e-05 0.00295388 0.00571405)
        Viscous  : (4.79808e-07 -5.00779e-06 0.000247293)
    writing force and moment files.

Time = 50

smoothSolver:  Solving for Ux, Initial residual = 2.86135e-05, Final residual = 2.59215e-06, No Iterations 1
smoothSolver:  Solving for Uy, Initial residual = 0.00193175, Final residual = 0.000133886, No Iterations 1
smoothSolver:  Solving for Uz, Initial residual = 0.00242794, Final residual = 0.000143534, No Iterations 1
GAMG:  Solving for p, Initial residual = 0.00341002, Final residual = 0.000151876, No Iterations 2
time step continuity errors : sum local = 1.95074e-06, global = -2.91985e-07, cumulative = 7.07606e-06
smoothSolver:  Solving for omega, Initial residual = 1.3284e-06, Final residual = 3.70323e-08, No Iterations 2
smoothSolver:  Solving for k, Initial residual = 0.000167721, Final residual = 1.26723e-05, No Iterations 1
ExecutionTime = 29.23 s  ClockTime = 29 s

forces forcesFish write:
    Sum of forces
        Total    : (0.333146 0.0201219 -0.00772862)
        Pressure : (0.137791 0.0193946 -0.00773234)
        Viscous  : (0.195355 0.000727218 3.72197e-06)
    Sum of moments
        Total    : (8.70616e-05 0.00293249 0.005903)
        Pressure : (8.65904e-05 0.00293766 0.00565557)
        Viscous  : (4.71241e-07 -5.16952e-06 0.000247423)
    writing force and moment files.

Time = 51

smoothSolver:  Solving for Ux, Initial residual = 2.78211e-05, Final residual = 2.50256e-06, No Iterations 1
smoothSolver:  Solving for Uy, Initial residual = 0.00190004, Final residual = 0.000132365, No Iterations 1
smoothSolver:  Solving for Uz, Initial residual = 0.00225232, Final residual = 0.000132649, No Iterations 1
GAMG:  Solving for p, Initial residual = 0.00318445, Final residual = 0.000141567, No Iterations 2
time step continuity errors : sum local = 1.81844e-06, global = -2.68553e-07, cumulative = 6.8075e-06
smoothSolver:  Solving for omega, Initial residual = 1.14921e-06, Final residual = 3.35053e-08, No Iterations 2
smoothSolver:  Solving for k, Initial residual = 0.000140082, Final residual = 1.13862e-05, No Iterations 1
ExecutionTime = 29.8 s  ClockTime = 30 s

forces forcesFish write:
    Sum of forces
        Total    : (0.332744 0.0199699 -0.00768596)
        Pressure : (0.137691 0.0192424 -0.00768964)
        Viscous  : (0.195053 0.000727448 3.67588e-06)
    Sum of moments
        Total    : (8.58315e-05 0.00291054 0.00585064)
        Pressure : (8.53593e-05 0.00291567 0.00560333)
        Viscous  : (4.72192e-07 -5.13754e-06 0.000247313)
    writing force and moment files.

Time = 52

smoothSolver:  Solving for Ux, Initial residual = 2.72665e-05, Final residual = 2.42675e-06, No Iterations 1
smoothSolver:  Solving for Uy, Initial residual = 0.00187442, Final residual = 0.000131298, No Iterations 1
smoothSolver:  Solving for Uz, Initial residual = 0.00208759, Final residual = 0.000122501, No Iterations 1
GAMG:  Solving for p, Initial residual = 0.00297294, Final residual = 0.000132125, No Iterations 2
time step continuity errors : sum local = 1.69687e-06, global = -2.48625e-07, cumulative = 6.55888e-06
smoothSolver:  Solving for omega, Initial residual = 1.00861e-06, Final residual = 3.04522e-08, No Iterations 2
smoothSolver:  Solving for k, Initial residual = 0.000117497, Final residual = 1.02646e-05, No Iterations 1
ExecutionTime = 30.37 s  ClockTime = 30 s

forces forcesFish write:
    Sum of forces
        Total    : (0.332342 0.0198418 -0.00762205)
        Pressure : (0.137576 0.0191135 -0.00762484)
        Viscous  : (0.194766 0.00072833 2.78406e-06)
    Sum of moments
        Total    : (8.46332e-05 0.00288153 0.00580378)
        Pressure : (8.41491e-05 0.0028863 0.00555628)
        Viscous  : (4.84163e-07 -4.76626e-06 0.000247501)
    writing force and moment files.

Time = 53

smoothSolver:  Solving for Ux, Initial residual = 2.64261e-05, Final residual = 2.34388e-06, No Iterations 1
smoothSolver:  Solving for Uy, Initial residual = 0.00185683, Final residual = 0.000130619, No Iterations 1
smoothSolver:  Solving for Uz, Initial residual = 0.00195427, Final residual = 0.000113445, No Iterations 1
GAMG:  Solving for p, Initial residual = 0.00278132, Final residual = 0.00012472, No Iterations 2
time step continuity errors : sum local = 1.60116e-06, global = -2.3469e-07, cumulative = 6.32419e-06
smoothSolver:  Solving for omega, Initial residual = 8.923e-07, Final residual = 2.77981e-08, No Iterations 2
smoothSolver:  Solving for k, Initial residual = 9.9111e-05, Final residual = 9.28219e-06, No Iterations 1
ExecutionTime = 30.93 s  ClockTime = 31 s

forces forcesFish write:
    Sum of forces
        Total    : (0.331917 0.0197333 -0.00753479)
        Pressure : (0.137426 0.0190064 -0.00753872)
        Viscous  : (0.194491 0.000726869 3.92511e-06)
    Sum of moments
        Total    : (8.34606e-05 0.00284524 0.00576143)
        Pressure : (8.2992e-05 0.00285044 0.00551469)
        Viscous  : (4.68547e-07 -5.20431e-06 0.000246738)
    writing force and moment files.

Time = 54

smoothSolver:  Solving for Ux, Initial residual = 2.52167e-05, Final residual = 2.248e-06, No Iterations 1
smoothSolver:  Solving for Uy, Initial residual = 0.00183249, Final residual = 0.000129132, No Iterations 1
smoothSolver:  Solving for Uz, Initial residual = 0.00185274, Final residual = 0.000106234, No Iterations 1
GAMG:  Solving for p, Initial residual = 0.00260061, Final residual = 0.00011649, No Iterations 2
time step continuity errors : sum local = 1.49459e-06, global = -2.36314e-07, cumulative = 6.08788e-06
smoothSolver:  Solving for omega, Initial residual = 7.97484e-07, Final residual = 2.55127e-08, No Iterations 2
smoothSolver:  Solving for k, Initial residual = 8.41485e-05, Final residual = 1.67468e-06, No Iterations 2
ExecutionTime = 31.47 s  ClockTime = 31 s

forces forcesFish write:
    Sum of forces
        Total    : (0.331473 0.0196356 -0.00742146)
        Pressure : (0.137275 0.0189092 -0.00742478)
        Viscous  : (0.194198 0.000726401 3.31579e-06)
    Sum of moments
        Total    : (8.22316e-05 0.00280085 0.00572198)
        Pressure : (8.17552e-05 0.00280579 0.00547558)
        Viscous  : (4.764e-07 -4.94171e-06 0.000246406)
    writing force and moment files.

Time = 55

smoothSolver:  Solving for Ux, Initial residual = 2.35958e-05, Final residual = 2.13568e-06, No Iterations 1
smoothSolver:  Solving for Uy, Initial residual = 0.00182901, Final residual = 0.000128562, No Iterations 1
smoothSolver:  Solving for Uz, Initial residual = 0.00174466, Final residual = 9.88505e-05, No Iterations 1
GAMG:  Solving for p, Initial residual = 0.0024306, Final residual = 0.000107327, No Iterations 2
time step continuity errors : sum local = 1.37589e-06, global = -2.3984e-07, cumulative = 5.84804e-06
smoothSolver:  Solving for omega, Initial residual = 7.4288e-07, Final residual = 2.41102e-08, No Iterations 2
smoothSolver:  Solving for k, Initial residual = 7.15356e-05, Final residual = 1.5332e-06, No Iterations 2
ExecutionTime = 32.02 s  ClockTime = 32 s

forces forcesFish write:
    Sum of forces
        Total    : (0.331027 0.019546 -0.00728298)
        Pressure : (0.137107 0.0188209 -0.00728519)
        Viscous  : (0.19392 0.00072517 2.20913e-06)
    Sum of moments
        Total    : (8.08941e-05 0.0027486 0.00568488)
        Pressure : (8.03978e-05 0.00275308 0.00543912)
        Viscous  : (4.96339e-07 -4.48458e-06 0.000245763)
    writing force and moment files.

Time = 56

smoothSolver:  Solving for Ux, Initial residual = 2.16766e-05, Final residual = 2.00669e-06, No Iterations 1
smoothSolver:  Solving for Uy, Initial residual = 0.0018269, Final residual = 0.000128054, No Iterations 1
smoothSolver:  Solving for Uz, Initial residual = 0.00164846, Final residual = 9.31594e-05, No Iterations 1
GAMG:  Solving for p, Initial residual = 0.00227539, Final residual = 9.87114e-05, No Iterations 2
time step continuity errors : sum local = 1.26406e-06, global = -2.22632e-07, cumulative = 5.6254e-06
smoothSolver:  Solving for omega, Initial residual = 6.88034e-07, Final residual = 2.27491e-08, No Iterations 2
smoothSolver:  Solving for k, Initial residual = 6.12549e-05, Final residual = 1.38716e-06, No Iterations 2
ExecutionTime = 32.57 s  ClockTime = 32 s

forces forcesFish write:
    Sum of forces
        Total    : (0.33058 0.019464 -0.00713229)
        Pressure : (0.136923 0.0187411 -0.00713578)
        Viscous  : (0.193657 0.000722931 3.48267e-06)
    Sum of moments
        Total    : (7.95217e-05 0.00269293 0.00565042)
        Pressure : (7.9047e-05 0.00269791 0.0054057)
        Viscous  : (4.7469e-07 -4.97645e-06 0.000244716)
    writing force and moment files.

Time = 57

smoothSolver:  Solving for Ux, Initial residual = 1.98447e-05, Final residual = 1.88602e-06, No Iterations 1
smoothSolver:  Solving for Uy, Initial residual = 0.00180894, Final residual = 0.000127047, No Iterations 1
smoothSolver:  Solving for Uz, Initial residual = 0.00156481, Final residual = 8.91899e-05, No Iterations 1
GAMG:  Solving for p, Initial residual = 0.00213127, Final residual = 9.10534e-05, No Iterations 2
time step continuity errors : sum local = 1.16457e-06, global = -1.8912e-07, cumulative = 5.43628e-06
smoothSolver:  Solving for omega, Initial residual = 6.38456e-07, Final residual = 2.14696e-08, No Iterations 2
smoothSolver:  Solving for k, Initial residual = 5.28388e-05, Final residual = 1.25099e-06, No Iterations 2
ExecutionTime = 33.11 s  ClockTime = 33 s

forces forcesFish write:
    Sum of forces
        Total    : (0.330151 0.0193903 -0.00697601)
        Pressure : (0.136741 0.0186694 -0.00697821)
        Viscous  : (0.193411 0.000720938 2.1983e-06)
    Sum of moments
        Total    : (7.80775e-05 0.00263584 0.00561945)
        Pressure : (7.758e-05 0.00264029 0.00537566)
        Viscous  : (4.97468e-07 -4.45072e-06 0.000243786)
    writing force and moment files.

Time = 58

smoothSolver:  Solving for Ux, Initial residual = 1.86637e-05, Final residual = 1.79436e-06, No Iterations 1
smoothSolver:  Solving for Uy, Initial residual = 0.00177221, Final residual = 0.000125664, No Iterations 1
smoothSolver:  Solving for Uz, Initial residual = 0.00145744, Final residual = 8.45469e-05, No Iterations 1
GAMG:  Solving for p, Initial residual = 0.0019956, Final residual = 8.67891e-05, No Iterations 2
time step continuity errors : sum local = 1.10878e-06, global = -1.5788e-07, cumulative = 5.2784e-06
smoothSolver:  Solving for omega, Initial residual = 5.95759e-07, Final residual = 2.02685e-08, No Iterations 2
smoothSolver:  Solving for k, Initial residual = 4.59123e-05, Final residual = 1.12702e-06, No Iterations 2
ExecutionTime = 33.66 s  ClockTime = 34 s

forces forcesFish write:
    Sum of forces
        Total    : (0.329732 0.0193247 -0.00682326)
        Pressure : (0.136554 0.0186058 -0.00682562)
        Viscous  : (0.193179 0.0007189 2.36132e-06)
    Sum of moments
        Total    : (7.65978e-05 0.00258016 0.00559176)
        Pressure : (7.61058e-05 0.00258467 0.00534893)
        Viscous  : (4.91982e-07 -4.50372e-06 0.000242829)
    writing force and moment files.

Time = 59

smoothSolver:  Solving for Ux, Initial residual = 1.81655e-05, Final residual = 1.7306e-06, No Iterations 1
smoothSolver:  Solving for Uy, Initial residual = 0.00172326, Final residual = 0.000123726, No Iterations 1
smoothSolver:  Solving for Uz, Initial residual = 0.00135925, Final residual = 8.0701e-05, No Iterations 1
GAMG:  Solving for p, Initial residual = 0.00187273, Final residual = 8.505e-05, No Iterations 2
time step continuity errors : sum local = 1.08558e-06, global = -1.29209e-07, cumulative = 5.14919e-06
smoothSolver:  Solving for omega, Initial residual = 5.55124e-07, Final residual = 1.91139e-08, No Iterations 2
smoothSolver:  Solving for k, Initial residual = 4.01654e-05, Final residual = 1.01455e-06, No Iterations 2
ExecutionTime = 34.31 s  ClockTime = 34 s

forces forcesFish write:
    Sum of forces
        Total    : (0.329324 0.0192653 -0.00668062)
        Pressure : (0.136364 0.0185499 -0.006683)
        Viscous  : (0.19296 0.000715465 2.37813e-06)
    Sum of moments
        Total    : (7.51491e-05 0.00252814 0.00556649)
        Pressure : (7.46541e-05 0.00253264 0.00532519)
        Viscous  : (4.95064e-07 -4.50063e-06 0.000241296)
    writing force and moment files.

Time = 60

smoothSolver:  Solving for Ux, Initial residual = 1.79932e-05, Final residual = 1.68123e-06, No Iterations 1
smoothSolver:  Solving for Uy, Initial residual = 0.00166674, Final residual = 0.000120992, No Iterations 1
smoothSolver:  Solving for Uz, Initial residual = 0.00126812, Final residual = 7.69041e-05, No Iterations 1
GAMG:  Solving for p, Initial residual = 0.00175614, Final residual = 8.09344e-05, No Iterations 2
time step continuity errors : sum local = 1.03233e-06, global = -8.92772e-08, cumulative = 5.05992e-06
smoothSolver:  Solving for omega, Initial residual = 5.18851e-07, Final residual = 1.80262e-08, No Iterations 2
smoothSolver:  Solving for k, Initial residual = 3.53457e-05, Final residual = 9.12538e-07, No Iterations 2
ExecutionTime = 35.02 s  ClockTime = 35 s

forces forcesFish write:
    Sum of forces
        Total    : (0.328944 0.0192095 -0.00654435)
        Pressure : (0.136188 0.0184964 -0.0065462)
        Viscous  : (0.192756 0.000713063 1.84928e-06)
    Sum of moments
        Total    : (7.36688e-05 0.00247821 0.0055427)
        Pressure : (7.31677e-05 0.00248248 0.0053025)
        Viscous  : (5.01097e-07 -4.27809e-06 0.000240194)
    writing force and moment files.

Time = 61

smoothSolver:  Solving for Ux, Initial residual = 1.78857e-05, Final residual = 1.63455e-06, No Iterations 1
smoothSolver:  Solving for Uy, Initial residual = 0.00162523, Final residual = 0.000118666, No Iterations 1
smoothSolver:  Solving for Uz, Initial residual = 0.00118925, Final residual = 7.32502e-05, No Iterations 1
GAMG:  Solving for p, Initial residual = 0.00165031, Final residual = 7.66688e-05, No Iterations 2
time step continuity errors : sum local = 9.77411e-07, global = -3.33337e-08, cumulative = 5.02658e-06
smoothSolver:  Solving for omega, Initial residual = 4.85894e-07, Final residual = 1.69749e-08, No Iterations 2
smoothSolver:  Solving for k, Initial residual = 3.12682e-05, Final residual = 8.20037e-07, No Iterations 2
ExecutionTime = 35.71 s  ClockTime = 36 s

forces forcesFish write:
    Sum of forces
        Total    : (0.328574 0.0191579 -0.00641403)
        Pressure : (0.136011 0.0184483 -0.00641631)
        Viscous  : (0.192563 0.000709642 2.28444e-06)
    Sum of moments
        Total    : (7.21672e-05 0.00243009 0.00552006)
        Pressure : (7.16724e-05 0.00243453 0.00528142)
        Viscous  : (4.94729e-07 -4.44209e-06 0.00023864)
    writing force and moment files.

Time = 62

smoothSolver:  Solving for Ux, Initial residual = 1.77311e-05, Final residual = 1.58578e-06, No Iterations 1
smoothSolver:  Solving for Uy, Initial residual = 0.00156764, Final residual = 0.000115159, No Iterations 1
smoothSolver:  Solving for Uz, Initial residual = 0.00112794, Final residual = 7.02638e-05, No Iterations 1
GAMG:  Solving for p, Initial residual = 0.00155244, Final residual = 7.03422e-05, No Iterations 2
time step continuity errors : sum local = 8.96374e-07, global = 3.74056e-08, cumulative = 5.06399e-06
smoothSolver:  Solving for omega, Initial residual = 4.56416e-07, Final residual = 1.59855e-08, No Iterations 2
smoothSolver:  Solving for k, Initial residual = 2.77843e-05, Final residual = 7.36284e-07, No Iterations 2
ExecutionTime = 36.38 s  ClockTime = 36 s

forces forcesFish write:
    Sum of forces
        Total    : (0.328233 0.0191086 -0.00629332)
        Pressure : (0.135849 0.0184024 -0.00629557)
        Viscous  : (0.192384 0.00070619 2.24904e-06)
    Sum of moments
        Total    : (7.07322e-05 0.00238526 0.00549796)
        Pressure : (7.02371e-05 0.00238968 0.00526087)
        Viscous  : (4.9508e-07 -4.41856e-06 0.000237086)
    writing force and moment files.

Time = 63

smoothSolver:  Solving for Ux, Initial residual = 1.73898e-05, Final residual = 1.53172e-06, No Iterations 1
smoothSolver:  Solving for Uy, Initial residual = 0.00149742, Final residual = 0.000110716, No Iterations 1
smoothSolver:  Solving for Uz, Initial residual = 0.00107458, Final residual = 6.72947e-05, No Iterations 1
GAMG:  Solving for p, Initial residual = 0.00146039, Final residual = 6.43398e-05, No Iterations 2
time step continuity errors : sum local = 8.19611e-07, global = 1.15659e-07, cumulative = 5.17965e-06
smoothSolver:  Solving for omega, Initial residual = 4.29403e-07, Final residual = 1.50395e-08, No Iterations 2
smoothSolver:  Solving for k, Initial residual = 2.47785e-05, Final residual = 6.60373e-07, No Iterations 2
ExecutionTime = 37.03 s  ClockTime = 37 s

forces forcesFish write:
    Sum of forces
        Total    : (0.32792 0.0190632 -0.00617562)
        Pressure : (0.135704 0.0183603 -0.00617673)
        Viscous  : (0.192216 0.000702815 1.11134e-06)
    Sum of moments
        Total    : (6.92808e-05 0.00234123 0.00547688)
        Pressure : (6.87649e-05 0.00234518 0.00524133)
        Viscous  : (5.1591e-07 -3.95412e-06 0.000235558)
    writing force and moment files.

Time = 64

smoothSolver:  Solving for Ux, Initial residual = 1.6792e-05, Final residual = 1.46965e-06, No Iterations 1
smoothSolver:  Solving for Uy, Initial residual = 0.00141143, Final residual = 0.000105188, No Iterations 1
smoothSolver:  Solving for Uz, Initial residual = 0.00101815, Final residual = 6.40942e-05, No Iterations 1
GAMG:  Solving for p, Initial residual = 0.00137671, Final residual = 6.4417e-05, No Iterations 2
time step continuity errors : sum local = 8.20397e-07, global = 1.79951e-07, cumulative = 5.3596e-06
smoothSolver:  Solving for omega, Initial residual = 4.02748e-07, Final residual = 1.41181e-08, No Iterations 2
smoothSolver:  Solving for k, Initial residual = 2.21613e-05, Final residual = 5.91834e-07, No Iterations 2
ExecutionTime = 37.69 s  ClockTime = 38 s

forces forcesFish write:
    Sum of forces
        Total    : (0.327617 0.019023 -0.00606276)
        Pressure : (0.13556 0.0183242 -0.00606628)
[...]
        Viscous  : (0.190049 0.000596582 3.49738e-06)
    Sum of moments
        Total    : (4.06076e-05 0.00144234 0.00618832)
        Pressure : (4.00863e-05 0.00144691 0.006005)
        Viscous  : (5.21244e-07 -4.57407e-06 0.00018332)
    writing force and moment files.

Time = 168

smoothSolver:  Solving for Ux, Initial residual = 1.90733e-07, Final residual = 1.14629e-08, No Iterations 1
smoothSolver:  Solving for Uy, Initial residual = 1.37919e-05, Final residual = 9.18566e-07, No Iterations 1
smoothSolver:  Solving for Uz, Initial residual = 1.94716e-05, Final residual = 1.26814e-06, No Iterations 1
GAMG:  Solving for p, Initial residual = 2.07066e-05, Final residual = 1.7652e-06, No Iterations 2
time step continuity errors : sum local = 2.23659e-08, global = -1.23713e-08, cumulative = 5.96402e-06
smoothSolver:  Solving for omega, Initial residual = 7.85812e-09, Final residual = 7.85812e-09, No Iterations 0
smoothSolver:  Solving for k, Initial residual = 2.79039e-08, Final residual = 2.01828e-09, No Iterations 1
ExecutionTime = 95.91 s  ClockTime = 96 s

forces forcesFish write:
    Sum of forces
        Total    : (0.324783 0.021288 -0.00380628)
        Pressure : (0.134735 0.0206918 -0.00380852)
        Viscous  : (0.190048 0.000596216 2.23393e-06)
    Sum of moments
        Total    : (4.0588e-05 0.00144188 0.00619164)
        Pressure : (4.00451e-05 0.00144596 0.00600848)
        Viscous  : (5.42961e-07 -4.07035e-06 0.000183156)
    writing force and moment files.

Time = 169

smoothSolver:  Solving for Ux, Initial residual = 1.64338e-07, Final residual = 1.0377e-08, No Iterations 1
smoothSolver:  Solving for Uy, Initial residual = 1.32101e-05, Final residual = 8.81436e-07, No Iterations 1
smoothSolver:  Solving for Uz, Initial residual = 1.86923e-05, Final residual = 1.19365e-06, No Iterations 1
GAMG:  Solving for p, Initial residual = 2.03776e-05, Final residual = 1.87741e-06, No Iterations 2
time step continuity errors : sum local = 2.37875e-08, global = -1.31757e-08, cumulative = 5.95085e-06
smoothSolver:  Solving for omega, Initial residual = 9.03786e-09, Final residual = 9.03786e-09, No Iterations 0
smoothSolver:  Solving for k, Initial residual = 2.77284e-08, Final residual = 2.03481e-09, No Iterations 1
ExecutionTime = 96.45 s  ClockTime = 96 s

forces forcesFish write:
    Sum of forces
        Total    : (0.324793 0.021296 -0.00380532)
        Pressure : (0.134744 0.0206996 -0.00380923)
        Viscous  : (0.190048 0.000596488 3.91664e-06)
    Sum of moments
        Total    : (4.05743e-05 0.0014415 0.0061949)
        Pressure : (4.00596e-05 0.00144624 0.00601164)
        Viscous  : (5.14754e-07 -4.74045e-06 0.000183264)
    writing force and moment files.

Time = 170

smoothSolver:  Solving for Ux, Initial residual = 1.3616e-07, Final residual = 9.38433e-09, No Iterations 1
smoothSolver:  Solving for Uy, Initial residual = 1.2615e-05, Final residual = 8.50649e-07, No Iterations 1
smoothSolver:  Solving for Uz, Initial residual = 1.82751e-05, Final residual = 1.20958e-06, No Iterations 1
GAMG:  Solving for p, Initial residual = 1.98721e-05, Final residual = 1.96425e-06, No Iterations 2
time step continuity errors : sum local = 2.48877e-08, global = -1.35757e-08, cumulative = 5.93727e-06
smoothSolver:  Solving for omega, Initial residual = 9.46405e-09, Final residual = 9.46405e-09, No Iterations 0
smoothSolver:  Solving for k, Initial residual = 2.70265e-08, Final residual = 2.03958e-09, No Iterations 1
ExecutionTime = 96.97 s  ClockTime = 97 s

forces forcesFish write:
    Sum of forces
        Total    : (0.324796 0.0213041 -0.00380567)
        Pressure : (0.134748 0.0207078 -0.00380807)
        Viscous  : (0.190048 0.000596316 2.40073e-06)
    Sum of moments
        Total    : (4.05825e-05 0.00144167 0.00619804)
        Pressure : (4.00424e-05 0.00144581 0.00601486)
        Viscous  : (5.40158e-07 -4.13588e-06 0.000183182)
    writing force and moment files.

Time = 171

smoothSolver:  Solving for Ux, Initial residual = 1.1486e-07, Final residual = 8.42463e-09, No Iterations 1
smoothSolver:  Solving for Uy, Initial residual = 1.20303e-05, Final residual = 8.18771e-07, No Iterations 1
smoothSolver:  Solving for Uz, Initial residual = 1.72424e-05, Final residual = 1.13149e-06, No Iterations 1
GAMG:  Solving for p, Initial residual = 1.88059e-05, Final residual = 1.49844e-06, No Iterations 3
time step continuity errors : sum local = 1.89857e-08, global = -7.17141e-09, cumulative = 5.9301e-06
smoothSolver:  Solving for omega, Initial residual = 1.10951e-08, Final residual = 1.28131e-09, No Iterations 1
smoothSolver:  Solving for k, Initial residual = 2.51084e-08, Final residual = 1.83653e-09, No Iterations 1
ExecutionTime = 97.52 s  ClockTime = 97 s

forces forcesFish write:
    Sum of forces
        Total    : (0.324812 0.0213115 -0.00380504)
        Pressure : (0.134764 0.0207147 -0.00380854)
        Viscous  : (0.190048 0.000596836 3.50153e-06)
    Sum of moments
        Total    : (4.05757e-05 0.00144142 0.00620115)
        Pressure : (4.00542e-05 0.00144599 0.00601776)
        Viscous  : (5.21411e-07 -4.57378e-06 0.000183398)
    writing force and moment files.

Time = 172

smoothSolver:  Solving for Ux, Initial residual = 1.43467e-07, Final residual = 8.82332e-09, No Iterations 1
smoothSolver:  Solving for Uy, Initial residual = 1.14526e-05, Final residual = 7.6951e-07, No Iterations 1
smoothSolver:  Solving for Uz, Initial residual = 1.64463e-05, Final residual = 1.12944e-06, No Iterations 1
GAMG:  Solving for p, Initial residual = 1.81532e-05, Final residual = 1.76121e-06, No Iterations 2
time step continuity errors : sum local = 2.23148e-08, global = -1.07963e-08, cumulative = 5.9193e-06
smoothSolver:  Solving for omega, Initial residual = 7.83084e-09, Final residual = 7.83084e-09, No Iterations 0
smoothSolver:  Solving for k, Initial residual = 2.40821e-08, Final residual = 1.70085e-09, No Iterations 1
ExecutionTime = 98.06 s  ClockTime = 98 s

forces forcesFish write:
    Sum of forces
        Total    : (0.324812 0.0213183 -0.00380551)
        Pressure : (0.134765 0.0207218 -0.00380799)
        Viscous  : (0.190047 0.000596463 2.48509e-06)
    Sum of moments
        Total    : (4.05869e-05 0.00144161 0.00620375)
        Pressure : (4.00483e-05 0.00144578 0.00602052)
        Viscous  : (5.38623e-07 -4.1685e-06 0.00018323)
    writing force and moment files.

Time = 173

smoothSolver:  Solving for Ux, Initial residual = 1.57906e-07, Final residual = 9.24821e-09, No Iterations 1
smoothSolver:  Solving for Uy, Initial residual = 1.09901e-05, Final residual = 7.50328e-07, No Iterations 1
smoothSolver:  Solving for Uz, Initial residual = 1.57898e-05, Final residual = 1.0413e-06, No Iterations 1
GAMG:  Solving for p, Initial residual = 1.73663e-05, Final residual = 1.57807e-06, No Iterations 2
time step continuity errors : sum local = 1.99942e-08, global = -8.99156e-09, cumulative = 5.91031e-06
smoothSolver:  Solving for omega, Initial residual = 7.75518e-09, Final residual = 7.75518e-09, No Iterations 0
smoothSolver:  Solving for k, Initial residual = 2.3244e-08, Final residual = 1.67263e-09, No Iterations 1
ExecutionTime = 98.59 s  ClockTime = 99 s

forces forcesFish write:
    Sum of forces
        Total    : (0.324823 0.0213245 -0.00380619)
        Pressure : (0.134775 0.0207277 -0.00380997)
        Viscous  : (0.190048 0.000596802 3.78633e-06)
    Sum of moments
        Total    : (4.06021e-05 0.00144185 0.00620633)
        Pressure : (4.00851e-05 0.00144653 0.00602296)
        Viscous  : (5.1698e-07 -4.68659e-06 0.000183372)
    writing force and moment files.

Time = 174

smoothSolver:  Solving for Ux, Initial residual = 1.71151e-07, Final residual = 9.55285e-09, No Iterations 1
smoothSolver:  Solving for Uy, Initial residual = 1.04628e-05, Final residual = 7.13823e-07, No Iterations 1
smoothSolver:  Solving for Uz, Initial residual = 1.50521e-05, Final residual = 1.0165e-06, No Iterations 1
GAMG:  Solving for p, Initial residual = 1.66489e-05, Final residual = 1.44623e-06, No Iterations 2
time step continuity errors : sum local = 1.83239e-08, global = -7.0975e-09, cumulative = 5.90322e-06
smoothSolver:  Solving for omega, Initial residual = 9.31916e-09, Final residual = 9.31916e-09, No Iterations 0
smoothSolver:  Solving for k, Initial residual = 2.24576e-08, Final residual = 1.68196e-09, No Iterations 1
ExecutionTime = 99.14 s  ClockTime = 99 s

forces forcesFish write:
    Sum of forces
        Total    : (0.324825 0.0213308 -0.00380768)
        Pressure : (0.134777 0.0207343 -0.00381004)
        Viscous  : (0.190047 0.000596557 2.36116e-06)
    Sum of moments
        Total    : (4.06307e-05 0.00144243 0.0062088)
        Pressure : (4.00896e-05 0.00144655 0.00602554)
        Viscous  : (5.41016e-07 -4.11853e-06 0.000183259)
    writing force and moment files.

Time = 175

smoothSolver:  Solving for Ux, Initial residual = 1.81075e-07, Final residual = 9.70588e-09, No Iterations 1
smoothSolver:  Solving for Uy, Initial residual = 1.00706e-05, Final residual = 6.91054e-07, No Iterations 1
smoothSolver:  Solving for Uz, Initial residual = 1.42519e-05, Final residual = 9.31318e-07, No Iterations 1
GAMG:  Solving for p, Initial residual = 1.56591e-05, Final residual = 1.26307e-06, No Iterations 2
time step continuity errors : sum local = 1.60032e-08, global = -5.07837e-09, cumulative = 5.89814e-06
smoothSolver:  Solving for omega, Initial residual = 9.22534e-09, Final residual = 9.22534e-09, No Iterations 0
smoothSolver:  Solving for k, Initial residual = 2.13439e-08, Final residual = 1.62052e-09, No Iterations 1
ExecutionTime = 99.67 s  ClockTime = 100 s

forces forcesFish write:
    Sum of forces
        Total    : (0.324836 0.0213368 -0.00380813)
        Pressure : (0.134788 0.0207397 -0.00381177)
        Viscous  : (0.190048 0.000597045 3.6401e-06)
    Sum of moments
        Total    : (4.06417e-05 0.00144257 0.00621127)
        Pressure : (4.01226e-05 0.0014472 0.00602781)
        Viscous  : (5.19103e-07 -4.6275e-06 0.000183462)
    writing force and moment files.

Time = 176

smoothSolver:  Solving for Ux, Initial residual = 1.86886e-07, Final residual = 9.66834e-09, No Iterations 1
smoothSolver:  Solving for Uy, Initial residual = 9.51735e-06, Final residual = 6.45223e-07, No Iterations 1
smoothSolver:  Solving for Uz, Initial residual = 1.33695e-05, Final residual = 8.91476e-07, No Iterations 1
GAMG:  Solving for p, Initial residual = 1.50805e-05, Final residual = 1.15712e-06, No Iterations 2
time step continuity errors : sum local = 1.46609e-08, global = -2.95271e-09, cumulative = 5.89518e-06
smoothSolver:  Solving for omega, Initial residual = 1.09133e-08, Final residual = 1.28657e-09, No Iterations 1
smoothSolver:  Solving for k, Initial residual = 2.0374e-08, Final residual = 1.45525e-09, No Iterations 1
ExecutionTime = 100.21 s  ClockTime = 100 s

forces forcesFish write:
    Sum of forces
        Total    : (0.324836 0.0213428 -0.00380969)
        Pressure : (0.134789 0.0207461 -0.00381208)
        Viscous  : (0.190047 0.000596682 2.38666e-06)
    Sum of moments
        Total    : (4.06724e-05 0.00144317 0.00621358)
        Pressure : (4.01319e-05 0.0014473 0.00603028)
        Viscous  : (5.40483e-07 -4.12798e-06 0.000183301)
    writing force and moment files.

Time = 177

smoothSolver:  Solving for Ux, Initial residual = 1.90173e-07, Final residual = 9.67573e-09, No Iterations 1
smoothSolver:  Solving for Uy, Initial residual = 9.15874e-06, Final residual = 6.3105e-07, No Iterations 1
smoothSolver:  Solving for Uz, Initial residual = 1.27914e-05, Final residual = 8.3742e-07, No Iterations 1
GAMG:  Solving for p, Initial residual = 1.44802e-05, Final residual = 1.01352e-06, No Iterations 2
time step continuity errors : sum local = 1.28415e-08, global = -8.52911e-10, cumulative = 5.89433e-06
smoothSolver:  Solving for omega, Initial residual = 7.38614e-09, Final residual = 7.38614e-09, No Iterations 0
smoothSolver:  Solving for k, Initial residual = 1.95948e-08, Final residual = 1.36269e-09, No Iterations 1
ExecutionTime = 100.76 s  ClockTime = 101 s

forces forcesFish write:
    Sum of forces
        Total    : (0.324845 0.0213484 -0.00381108)
        Pressure : (0.134798 0.0207514 -0.00381493)
        Viscous  : (0.190048 0.000597006 3.85221e-06)
    Sum of moments
        Total    : (4.07e-05 0.00144366 0.0062159)
        Pressure : (4.01841e-05 0.00144837 0.00603246)
        Viscous  : (5.1588e-07 -4.7117e-06 0.000183435)
    writing force and moment files.

Time = 178

smoothSolver:  Solving for Ux, Initial residual = 1.90952e-07, Final residual = 9.66008e-09, No Iterations 1
smoothSolver:  Solving for Uy, Initial residual = 8.71814e-06, Final residual = 6.05748e-07, No Iterations 1
smoothSolver:  Solving for Uz, Initial residual = 1.23211e-05, Final residual = 8.46131e-07, No Iterations 1
GAMG:  Solving for p, Initial residual = 1.39307e-05, Final residual = 9.46118e-07, No Iterations 2
time step continuity errors : sum local = 1.19876e-08, global = 1.24501e-09, cumulative = 5.89558e-06
smoothSolver:  Solving for omega, Initial residual = 7.19942e-09, Final residual = 7.19942e-09, No Iterations 0
smoothSolver:  Solving for k, Initial residual = 1.89739e-08, Final residual = 1.37566e-09, No Iterations 1
ExecutionTime = 101.3 s  ClockTime = 101 s

forces forcesFish write:
    Sum of forces
        Total    : (0.324847 0.0213541 -0.00381335)
        Pressure : (0.1348 0.0207574 -0.00381575)
        Viscous  : (0.190047 0.00059677 2.40895e-06)
    Sum of moments
        Total    : (4.07422e-05 0.00144453 0.00621811)
        Pressure : (4.02021e-05 0.00144867 0.00603478)
        Viscous  : (5.40161e-07 -4.13642e-06 0.000183328)
    writing force and moment files.

Time = 179

smoothSolver:  Solving for Ux, Initial residual = 1.88337e-07, Final residual = 9.47393e-09, No Iterations 1
smoothSolver:  Solving for Uy, Initial residual = 8.33215e-06, Final residual = 5.91978e-07, No Iterations 1
smoothSolver:  Solving for Uz, Initial residual = 1.16322e-05, Final residual = 7.85306e-07, No Iterations 1
GAMG:  Solving for p, Initial residual = 1.30507e-05, Final residual = 8.49898e-07, No Iterations 2
time step continuity errors : sum local = 1.07684e-08, global = 3.1297e-09, cumulative = 5.89871e-06
smoothSolver:  Solving for omega, Initial residual = 8.73744e-09, Final residual = 8.73744e-09, No Iterations 0
smoothSolver:  Solving for k, Initial residual = 1.81333e-08, Final residual = 1.3526e-09, No Iterations 1
ExecutionTime = 101.84 s  ClockTime = 102 s

forces forcesFish write:
    Sum of forces
        Total    : (0.324857 0.0213593 -0.00381446)
        Pressure : (0.134809 0.0207621 -0.00381812)
        Viscous  : (0.190048 0.00059723 3.65501e-06)
    Sum of moments
        Total    : (4.07651e-05 0.00144492 0.0062203)
        Pressure : (4.02462e-05 0.00144955 0.00603678)
        Viscous  : (5.18916e-07 -4.63247e-06 0.00018352)
    writing force and moment files.

Time = 180

smoothSolver:  Solving for Ux, Initial residual = 1.82304e-07, Final residual = 9.10542e-09, No Iterations 1
smoothSolver:  Solving for Uy, Initial residual = 7.8015e-06, Final residual = 5.52298e-07, No Iterations 1
smoothSolver:  Solving for Uz, Initial residual = 1.08742e-05, Final residual = 7.61974e-07, No Iterations 1
GAMG:  Solving for p, Initial residual = 1.28552e-05, Final residual = 8.70704e-07, No Iterations 2
time step continuity errors : sum local = 1.10322e-08, global = 4.9081e-09, cumulative = 5.90361e-06
smoothSolver:  Solving for omega, Initial residual = 8.27001e-09, Final residual = 8.27001e-09, No Iterations 0
smoothSolver:  Solving for k, Initial residual = 1.81652e-08, Final residual = 1.37579e-09, No Iterations 1
ExecutionTime = 102.37 s  ClockTime = 102 s

forces forcesFish write:
    Sum of forces
        Total    : (0.324855 0.0213647 -0.00381663)
        Pressure : (0.134809 0.0207679 -0.00381919)
        Viscous  : (0.190047 0.00059686 2.56823e-06)
    Sum of moments
        Total    : (4.08064e-05 0.00144574 0.00622233)
        Pressure : (4.02691e-05 0.00144994 0.00603898)
        Viscous  : (5.37282e-07 -4.19939e-06 0.000183355)
    writing force and moment files.

Time = 181

smoothSolver:  Solving for Ux, Initial residual = 1.75758e-07, Final residual = 8.79682e-09, No Iterations 1
smoothSolver:  Solving for Uy, Initial residual = 7.474e-06, Final residual = 5.41899e-07, No Iterations 1
smoothSolver:  Solving for Uz, Initial residual = 1.05388e-05, Final residual = 7.25993e-07, No Iterations 1
GAMG:  Solving for p, Initial residual = 1.23933e-05, Final residual = 8.41146e-07, No Iterations 2
time step continuity errors : sum local = 1.06577e-08, global = 6.27294e-09, cumulative = 5.90989e-06
smoothSolver:  Solving for omega, Initial residual = 9.67644e-09, Final residual = 9.67644e-09, No Iterations 0
smoothSolver:  Solving for k, Initial residual = 1.79722e-08, Final residual = 1.3536e-09, No Iterations 1
ExecutionTime = 102.89 s  ClockTime = 103 s

forces forcesFish write:
    Sum of forces
        Total    : (0.324864 0.0213696 -0.00381891)
        Pressure : (0.134817 0.0207724 -0.00382279)
        Viscous  : (0.190047 0.000597181 3.87555e-06)
    Sum of moments
        Total    : (4.08497e-05 0.00144657 0.00622434)
        Pressure : (4.03342e-05 0.00145129 0.00604085)
        Viscous  : (5.15541e-07 -4.7202e-06 0.000183491)
    writing force and moment files.

Time = 182

smoothSolver:  Solving for Ux, Initial residual = 1.65731e-07, Final residual = 8.42997e-09, No Iterations 1
smoothSolver:  Solving for Uy, Initial residual = 7.07579e-06, Final residual = 5.18415e-07, No Iterations 1
smoothSolver:  Solving for Uz, Initial residual = 1.01276e-05, Final residual = 7.32448e-07, No Iterations 1
GAMG:  Solving for p, Initial residual = 1.19601e-05, Final residual = 9.3317e-07, No Iterations 2
time step continuity errors : sum local = 1.18238e-08, global = 7.39977e-09, cumulative = 5.91729e-06
smoothSolver:  Solving for omega, Initial residual = 9.60765e-09, Final residual = 9.60765e-09, No Iterations 0
smoothSolver:  Solving for k, Initial residual = 1.75753e-08, Final residual = 1.35855e-09, No Iterations 1
ExecutionTime = 103.41 s  ClockTime = 103 s

forces forcesFish write:
    Sum of forces
        Total    : (0.324865 0.0213744 -0.00382173)
        Pressure : (0.134818 0.0207775 -0.00382413)
        Viscous  : (0.190047 0.000596938 2.4021e-06)
    Sum of moments
        Total    : (4.09013e-05 0.00144765 0.00622621)
        Pressure : (4.03609e-05 0.00145178 0.00604283)
        Viscous  : (5.40379e-07 -4.13303e-06 0.000183382)
    writing force and moment files.

Time = 183

smoothSolver:  Solving for Ux, Initial residual = 1.52787e-07, Final residual = 7.90193e-09, No Iterations 1
smoothSolver:  Solving for Uy, Initial residual = 6.76524e-06, Final residual = 5.08805e-07, No Iterations 1
smoothSolver:  Solving for Uz, Initial residual = 9.57986e-06, Final residual = 6.76441e-07, No Iterations 1
GAMG:  Solving for p, Initial residual = 1.12919e-05, Final residual = 1.00191e-06, No Iterations 2
time step continuity errors : sum local = 1.26948e-08, global = 8.10604e-09, cumulative = 5.92539e-06
smoothSolver:  Solving for omega, Initial residual = 1.11743e-08, Final residual = 1.32099e-09, No Iterations 1
smoothSolver:  Solving for k, Initial residual = 1.61256e-08, Final residual = 1.121e-09, No Iterations 1
ExecutionTime = 103.94 s  ClockTime = 104 s


SIMPLE solution converged in 183 iterations

forces forcesFish write:
    Sum of forces
        Total    : (0.324875 0.0213788 -0.00382311)
        Pressure : (0.134828 0.0207814 -0.00382678)
        Viscous  : (0.190047 0.000597421 3.67504e-06)
    Sum of moments
        Total    : (4.09286e-05 0.00144813 0.00622807)
        Pressure : (4.04101e-05 0.00145277 0.00604449)
        Viscous  : (5.18509e-07 -4.63985e-06 0.000183584)
    writing force and moment files.

End

